
     RDKit          3D

 42 44  0  0  0  0  0  0  0  0999 V2000
   27.6760    8.4780  -10.0010 C   0  0  0  0  0  0  0  0  0  0  0  0
   27.4140    7.3210   -9.2790 N   0  0  0  0  0  0  0  0  0  0  0  0
   26.6990    7.3870   -8.0900 C   0  0  0  0  0  0  0  0  0  0  0  0
   26.2460    8.6150   -7.6210 N   0  0  0  0  0  0  0  0  0  0  0  0
   28.3520    8.3280  -11.0620 N   0  0  0  0  0  0  0  0  0  0  0  0
   26.5060    9.7740   -8.3410 C   0  0  0  0  0  0  0  0  0  0  0  0
   27.2080    9.6970   -9.5460 C   0  0  0  0  0  0  0  0  0  0  0  0
   28.6160    9.3990  -11.8050 C   0  0  0  0  0  0  0  0  0  0  0  0
   29.9110    9.8790  -11.9470 N   0  0  0  0  0  0  0  0  0  0  0  0
   30.1530   10.9990  -12.7350 C   0  0  0  0  0  0  0  0  0  0  0  0
   29.0990   11.6380  -13.3790 C   0  0  0  0  0  0  0  0  0  0  0  0
   27.8020   11.1560  -13.2340 C   0  0  0  0  0  0  0  0  0  0  0  0
   27.5690   10.0170  -12.4700 C   0  0  0  0  0  0  0  0  0  0  0  0
   28.9630    7.1570  -11.7210 C   0  0  1  0  0  0  0  0  0  0  0  0
   29.3370   12.7490  -14.1570 O   0  0  0  0  0  0  0  0  0  0  0  0
   29.6530   13.8570  -13.3250 C   0  0  1  0  0  0  0  0  0  0  0  0
   28.4570   14.7450  -12.9560 C   0  0  1  0  0  0  0  0  0  0  0  0
   26.0770   10.9850   -7.8720 N   0  0  0  0  0  0  0  0  0  0  0  0
   26.5120   11.4440   -6.6500 C   0  0  0  0  0  0  0  0  0  0  0  0
   26.0500   12.8760   -6.6800 C   0  0  1  0  0  0  0  0  0  0  0  0
   25.1860   11.8250   -8.6780 C   0  0  1  0  0  0  0  0  0  0  0  0
   24.8760   12.9880   -7.6840 C   0  0  1  0  0  0  0  0  0  0  0  0
   27.0270   10.8750   -5.7680 O   0  0  0  0  0  0  0  0  0  0  0  0
   26.4915    6.4692   -7.5203 H   0  0  0  0  0  0  0  0  0  0  0  0
   27.3890   10.6085  -10.1346 H   0  0  0  0  0  0  0  0  0  0  0  0
   31.1787   11.3797  -12.8490 H   0  0  0  0  0  0  0  0  0  0  0  0
   26.9632   11.6740  -13.7220 H   0  0  0  0  0  0  0  0  0  0  0  0
   26.5515    9.6061  -12.3936 H   0  0  0  0  0  0  0  0  0  0  0  0
   29.3290    6.4556  -10.9567 H   0  0  0  0  0  0  0  0  0  0  0  0
   28.2114    6.6559  -12.3487 H   0  0  0  0  0  0  0  0  0  0  0  0
   29.8040    7.4868  -12.3487 H   0  0  0  0  0  0  0  0  0  0  0  0
   30.0933   13.4713  -12.3937 H   0  0  0  0  0  0  0  0  0  0  0  0
   30.3436   14.4904  -13.9011 H   0  0  0  0  0  0  0  0  0  0  0  0
   28.3715   14.8085  -11.8612 H   0  0  0  0  0  0  0  0  0  0  0  0
   28.6065   15.7526  -13.3712 H   0  0  0  0  0  0  0  0  0  0  0  0
   27.5357   14.3104  -13.3712 H   0  0  0  0  0  0  0  0  0  0  0  0
   25.7124   13.1789   -5.6778 H   0  0  0  0  0  0  0  0  0  0  0  0
   26.8759   13.5340   -6.9881 H   0  0  0  0  0  0  0  0  0  0  0  0
   25.6905   12.1934   -9.5834 H   0  0  0  0  0  0  0  0  0  0  0  0
   24.2928   11.3032   -9.0521 H   0  0  0  0  0  0  0  0  0  0  0  0
   23.9074   12.8391   -7.1844 H   0  0  0  0  0  0  0  0  0  0  0  0
   24.7973   13.9737   -8.1658 H   0  0  0  0  0  0  0  0  0  0  0  0
  1  5  1  0
  1  7  1  0
  1  2  2  0
  2  3  1  0
  3  4  2  0
  4  6  1  0
  5  8  1  0
  5 14  1  0
  6  7  2  0
  6 18  1  0
  8 13  1  0
  8  9  2  0
  9 10  1  0
 10 11  2  0
 11 15  1  0
 11 12  1  0
 12 13  2  0
 18 21  1  0
 18 19  1  0
 19 20  1  0
 19 23  2  0
 20 22  1  0
 21 22  1  0
 15 16  1  0
 16 17  1  0
  3 24  1  0
  7 25  1  0
 10 26  1  0
 12 27  1  0
 13 28  1  0
 14 29  1  1
 14 30  1  0
 14 31  1  0
 16 32  1  1
 16 33  1  0
 17 34  1  1
 17 35  1  0
 17 36  1  0
 20 37  1  1
 20 38  1  0
 21 39  1  6
 21 40  1  0
 22 41  1  1
 22 42  1  0
M  END
>  <Pose ID>  (1)
172

>  <Score>  (1)
-8.727922439575195

>  <smiles>  (1)
CCOc1ccc(N(C)c2cc(N3CCCC3=O)ncn2)nc1

$$$$

     RDKit          3D

 43 45  0  0  0  0  0  0  0  0999 V2000
   27.6570    8.3320  -10.0940 C   0  0  0  0  0  0  0  0  0  0  0  0
   27.3920    7.1410   -9.4300 N   0  0  0  0  0  0  0  0  0  0  0  0
   26.6890    7.1530   -8.2320 C   0  0  0  0  0  0  0  0  0  0  0  0
   26.2500    8.3590   -7.6960 N   0  0  0  0  0  0  0  0  0  0  0  0
   28.3200    8.2300  -11.1680 N   0  0  0  0  0  0  0  0  0  0  0  0
   26.5120    9.5500   -8.3610 C   0  0  0  0  0  0  0  0  0  0  0  0
   27.2020    9.5290   -9.5740 C   0  0  0  0  0  0  0  0  0  0  0  0
   28.5840    9.3330  -11.8600 C   0  0  0  0  0  0  0  0  0  0  0  0
   29.8820    9.8130  -11.9910 N   0  0  0  0  0  0  0  0  0  0  0  0
   30.1280   10.9680  -12.7260 C   0  0  0  0  0  0  0  0  0  0  0  0
   29.0720   11.6470  -13.3240 C   0  0  0  0  0  0  0  0  0  0  0  0
   27.7720   11.1680  -13.1920 C   0  0  0  0  0  0  0  0  0  0  0  0
   27.5370    9.9930  -12.4820 C   0  0  0  0  0  0  0  0  0  0  0  0
   28.9170    7.0880  -11.8930 C   0  0  1  0  0  0  0  0  0  0  0  0
   29.3120   12.7930  -14.0480 O   0  0  0  0  0  0  0  0  0  0  0  0
   29.6420   13.8560  -13.1640 C   0  0  1  0  0  0  0  0  0  0  0  0
   28.4590   14.7340  -12.7390 C   0  0  1  0  0  0  0  0  0  0  0  0
   26.0970   10.7390   -7.8280 N   0  0  0  0  0  0  0  0  0  0  0  0
   26.5790   11.1600   -6.5040 C   0  0  1  0  0  0  0  0  0  0  0  0
   26.5640   12.6860   -6.4230 C   0  0  1  0  0  0  0  0  0  0  0  0
   25.3670   11.9800   -8.4460 C   0  0  1  0  0  0  0  0  0  0  0  0
   25.3190   13.0030   -7.2970 C   0  0  1  0  0  0  0  0  0  0  0  0
   26.4796    6.2091   -7.7074 H   0  0  0  0  0  0  0  0  0  0  0  0
   27.3842   10.4677  -10.1177 H   0  0  0  0  0  0  0  0  0  0  0  0
   31.1562   11.3437  -12.8340 H   0  0  0  0  0  0  0  0  0  0  0  0
   26.9332   11.7154  -13.6467 H   0  0  0  0  0  0  0  0  0  0  0  0
   26.5165    9.5878  -12.4150 H   0  0  0  0  0  0  0  0  0  0  0  0
   29.3006    6.3541  -11.1689 H   0  0  0  0  0  0  0  0  0  0  0  0
   28.1513    6.6140  -12.5247 H   0  0  0  0  0  0  0  0  0  0  0  0
   29.7432    7.4462  -12.5247 H   0  0  0  0  0  0  0  0  0  0  0  0
   30.0872   13.4205  -12.2573 H   0  0  0  0  0  0  0  0  0  0  0  0
   30.3308   14.5128  -13.7155 H   0  0  0  0  0  0  0  0  0  0  0  0
   28.4069   14.7726  -11.6409 H   0  0  0  0  0  0  0  0  0  0  0  0
   28.5960   15.7508  -13.1356 H   0  0  0  0  0  0  0  0  0  0  0  0
   27.5254   14.3084  -13.1356 H   0  0  0  0  0  0  0  0  0  0  0  0
   25.9232   10.7442   -5.7249 H   0  0  0  0  0  0  0  0  0  0  0  0
   27.6046   10.7929   -6.3513 H   0  0  0  0  0  0  0  0  0  0  0  0
   26.4340   13.0366   -5.3885 H   0  0  0  0  0  0  0  0  0  0  0  0
   27.4933   13.1721   -6.7550 H   0  0  0  0  0  0  0  0  0  0  0  0
   25.9330   12.3796   -9.3004 H   0  0  0  0  0  0  0  0  0  0  0  0
   24.3666   11.7314   -8.8299 H   0  0  0  0  0  0  0  0  0  0  0  0
   24.3953   12.8837   -6.7116 H   0  0  0  0  0  0  0  0  0  0  0  0
   25.3267   14.0392   -7.6662 H   0  0  0  0  0  0  0  0  0  0  0  0
  1  5  1  0
  1  7  1  0
  1  2  2  0
  2  3  1  0
  3  4  2  0
  4  6  1  0
  5 14  1  0
  5  8  1  0
  6  7  2  0
  6 18  1  0
  8 13  1  0
  8  9  2  0
  9 10  1  0
 10 11  2  0
 11 15  1  0
 11 12  1  0
 12 13  2  0
 18 21  1  0
 18 19  1  0
 19 20  1  0
 20 22  1  0
 21 22  1  0
 15 16  1  0
 16 17  1  0
  3 23  1  0
  7 24  1  0
 10 25  1  0
 12 26  1  0
 13 27  1  0
 14 28  1  1
 14 29  1  0
 14 30  1  0
 16 31  1  1
 16 32  1  0
 17 33  1  1
 17 34  1  0
 17 35  1  0
 19 36  1  1
 19 37  1  0
 20 38  1  1
 20 39  1  0
 21 40  1  6
 21 41  1  0
 22 42  1  1
 22 43  1  0
M  END
>  <Pose ID>  (2)
171

>  <Score>  (2)
-8.686750411987305

>  <smiles>  (2)
CCOc1ccc(N(C)c2cc(N3CCCC3)ncn2)nc1

$$$$

     RDKit          3D

 46 48  0  0  0  0  0  0  0  0999 V2000
   27.6700    8.3580  -10.0820 C   0  0  0  0  0  0  0  0  0  0  0  0
   27.4010    7.1730   -9.4110 N   0  0  0  0  0  0  0  0  0  0  0  0
   26.7200    7.1970   -8.2000 C   0  0  0  0  0  0  0  0  0  0  0  0
   26.3060    8.4100   -7.6620 N   0  0  0  0  0  0  0  0  0  0  0  0
   28.3150    8.2440  -11.1670 N   0  0  0  0  0  0  0  0  0  0  0  0
   26.5730    9.5970   -8.3330 C   0  0  0  0  0  0  0  0  0  0  0  0
   27.2410    9.5640   -9.5580 C   0  0  0  0  0  0  0  0  0  0  0  0
   28.5830    9.3440  -11.8670 C   0  0  0  0  0  0  0  0  0  0  0  0
   29.8830    9.8040  -12.0210 N   0  0  0  0  0  0  0  0  0  0  0  0
   30.1310   10.9550  -12.7640 C   0  0  0  0  0  0  0  0  0  0  0  0
   29.0740   11.6460  -13.3450 C   0  0  0  0  0  0  0  0  0  0  0  0
   27.7720   11.1860  -13.1900 C   0  0  0  0  0  0  0  0  0  0  0  0
   27.5320   10.0160  -12.4720 C   0  0  0  0  0  0  0  0  0  0  0  0
   28.8830    7.0960  -11.9000 C   0  0  1  0  0  0  0  0  0  0  0  0
   29.3180   12.7870  -14.0740 O   0  0  0  0  0  0  0  0  0  0  0  0
   29.6790   13.8470  -13.1990 C   0  0  1  0  0  0  0  0  0  0  0  0
   28.5140   14.7450  -12.7570 C   0  0  1  0  0  0  0  0  0  0  0  0
   26.0880   10.6480   -7.6030 N   0  0  0  0  0  0  0  0  0  0  0  0
   25.8820   10.9120   -6.1720 C   0  0  1  0  0  0  0  0  0  0  0  0
   25.9990   12.2960   -5.7900 C   0  0  1  0  0  0  0  0  0  0  0  0
   25.3280   11.5280   -8.5420 C   0  0  1  0  0  0  0  0  0  0  0  0
   25.6280   13.0300   -8.2430 C   0  0  1  0  0  0  0  0  0  0  0  0
   25.2120   13.3960   -6.7990 C   0  0  1  0  0  0  0  0  0  0  0  0
   26.5089    6.2577   -7.6680 H   0  0  0  0  0  0  0  0  0  0  0  0
   27.4266   10.4986  -10.1076 H   0  0  0  0  0  0  0  0  0  0  0  0
   31.1619   11.3171  -12.8911 H   0  0  0  0  0  0  0  0  0  0  0  0
   26.9334   11.7436  -13.6326 H   0  0  0  0  0  0  0  0  0  0  0  0
   26.5075    9.6252  -12.3852 H   0  0  0  0  0  0  0  0  0  0  0  0
   29.2526    6.3491  -11.1820 H   0  0  0  0  0  0  0  0  0  0  0  0
   28.1049    6.6433  -12.5322 H   0  0  0  0  0  0  0  0  0  0  0  0
   29.7149    7.4399  -12.5322 H   0  0  0  0  0  0  0  0  0  0  0  0
   30.1325   13.4074  -12.2984 H   0  0  0  0  0  0  0  0  0  0  0  0
   30.3690   14.4917  -13.7632 H   0  0  0  0  0  0  0  0  0  0  0  0
   28.4723   14.7772  -11.6583 H   0  0  0  0  0  0  0  0  0  0  0  0
   28.6660   15.7618  -13.1481 H   0  0  0  0  0  0  0  0  0  0  0  0
   27.5694   14.3391  -13.1481 H   0  0  0  0  0  0  0  0  0  0  0  0
   24.8731   10.5666   -5.9021 H   0  0  0  0  0  0  0  0  0  0  0  0
   26.6813   10.3753   -5.6399 H   0  0  0  0  0  0  0  0  0  0  0  0
   25.5813   12.4050   -4.7783 H   0  0  0  0  0  0  0  0  0  0  0  0
   27.0700   12.5383   -5.8554 H   0  0  0  0  0  0  0  0  0  0  0  0
   25.6257   11.2977   -9.5756 H   0  0  0  0  0  0  0  0  0  0  0  0
   24.2513   11.3459   -8.4092 H   0  0  0  0  0  0  0  0  0  0  0  0
   26.7056   13.2139   -8.3655 H   0  0  0  0  0  0  0  0  0  0  0  0
   25.0515   13.6512   -8.9443 H   0  0  0  0  0  0  0  0  0  0  0  0
   24.1217   13.3082   -6.6823 H   0  0  0  0  0  0  0  0  0  0  0  0
   25.4858   14.4326   -6.5532 H   0  0  0  0  0  0  0  0  0  0  0  0
  1  5  1  0
  1  7  1  0
  1  2  2  0
  2  3  1  0
  3  4  2  0
  4  6  1  0
  5 14  1  0
  5  8  1  0
  6  7  2  0
  6 18  1  0
  8 13  1  0
  8  9  2  0
  9 10  1  0
 10 11  2  0
 11 15  1  0
 11 12  1  0
 12 13  2  0
 18 21  1  0
 18 19  1  0
 19 20  1  0
 20 23  1  0
 21 22  1  0
 22 23  1  0
 15 16  1  0
 16 17  1  0
  3 24  1  0
  7 25  1  0
 10 26  1  0
 12 27  1  0
 13 28  1  0
 14 29  1  1
 14 30  1  0
 14 31  1  0
 16 32  1  1
 16 33  1  0
 17 34  1  1
 17 35  1  0
 17 36  1  0
 19 37  1  1
 19 38  1  0
 20 39  1  1
 20 40  1  0
 21 41  1  6
 21 42  1  0
 22 43  1  1
 22 44  1  0
 23 45  1  6
 23 46  1  0
M  END
>  <Pose ID>  (3)
168

>  <Score>  (3)
-8.545315742492676

>  <smiles>  (3)
CCOc1ccc(N(C)c2cc(N3CCCCC3)ncn2)nc1

$$$$

     RDKit          3D

 31 33  0  0  0  0  0  0  0  0999 V2000
   26.4130    7.0420   -8.4430 C   0  0  0  0  0  0  0  0  0  0  0  0
   27.2870    7.0680   -9.5210 N   0  0  0  0  0  0  0  0  0  0  0  0
   27.6910    8.2820  -10.0610 C   0  0  0  0  0  0  0  0  0  0  0  0
   28.5300    7.9530  -11.0900 N   0  0  0  0  0  0  0  0  0  0  0  0
   25.9460    8.2310   -7.8990 N   0  0  0  0  0  0  0  0  0  0  0  0
   26.3480    9.4470   -8.4360 C   0  0  0  0  0  0  0  0  0  0  0  0
   27.2230    9.4740   -9.5180 C   0  0  0  0  0  0  0  0  0  0  0  0
   29.1230    9.0840  -11.7940 C   0  0  0  0  0  0  0  0  0  0  0  0
   30.4760    9.1910  -12.0980 N   0  0  0  0  0  0  0  0  0  0  0  0
   30.9490   10.3080  -12.7770 C   0  0  0  0  0  0  0  0  0  0  0  0
   30.0720   11.3180  -13.1490 C   0  0  0  0  0  0  0  0  0  0  0  0
   28.7200   11.2140  -12.8440 C   0  0  0  0  0  0  0  0  0  0  0  0
   28.2420   10.0790  -12.1900 C   0  0  0  0  0  0  0  0  0  0  0  0
   27.6250   10.6780  -10.0490 O   0  0  0  0  0  0  0  0  0  0  0  0
   27.2120   11.8330   -9.5820 C   0  0  0  0  0  0  0  0  0  0  0  0
   28.0720   12.6900   -8.9060 C   0  0  0  0  0  0  0  0  0  0  0  0
   27.5990   13.8980   -8.4060 C   0  0  0  0  0  0  0  0  0  0  0  0
   26.2650   14.2470   -8.5810 C   0  0  0  0  0  0  0  0  0  0  0  0
   25.4040   13.3890   -9.2560 N   0  0  0  0  0  0  0  0  0  0  0  0
   25.8790   12.1810   -9.7570 C   0  0  0  0  0  0  0  0  0  0  0  0
   26.0903    6.0794   -8.0197 H   0  0  0  0  0  0  0  0  0  0  0  0
   28.7287    6.9761  -11.3491 H   0  0  0  0  0  0  0  0  0  0  0  0
   25.9750   10.3884   -8.0064 H   0  0  0  0  0  0  0  0  0  0  0  0
   32.0186   10.3917  -13.0197 H   0  0  0  0  0  0  0  0  0  0  0  0
   30.4477   12.2016  -13.6858 H   0  0  0  0  0  0  0  0  0  0  0  0
   28.0289   12.0248  -13.1178 H   0  0  0  0  0  0  0  0  0  0  0  0
   27.1659    9.9729  -11.9882 H   0  0  0  0  0  0  0  0  0  0  0  0
   29.1273   12.4126   -8.7664 H   0  0  0  0  0  0  0  0  0  0  0  0
   28.2801   14.5771   -7.8722 H   0  0  0  0  0  0  0  0  0  0  0  0
   25.8903   15.2025   -8.1853 H   0  0  0  0  0  0  0  0  0  0  0  0
   25.1988   11.5017  -10.2916 H   0  0  0  0  0  0  0  0  0  0  0  0
  1  2  2  0
  1  5  1  0
  2  3  1  0
  3  4  1  0
  3  7  2  0
  5  6  2  0
  6  7  1  0
  7 14  1  0
  4  8  1  0
  8 13  1  0
  8  9  2  0
  9 10  1  0
 10 11  2  0
 11 12  1  0
 12 13  2  0
 14 15  1  0
 15 20  1  0
 15 16  2  0
 16 17  1  0
 17 18  2  0
 18 19  1  0
 19 20  2  0
  1 21  1  0
  4 22  1  0
  6 23  1  0
 10 24  1  0
 11 25  1  0
 12 26  1  0
 13 27  1  0
 16 28  1  0
 17 29  1  0
 18 30  1  0
 20 31  1  0
M  END
>  <Pose ID>  (4)
77

>  <Score>  (4)
-8.352825164794922

>  <smiles>  (4)
c1ccc(Nc2ncncc2Oc2cccnc2)nc1

$$$$

     RDKit          3D

 34 36  0  0  0  0  0  0  0  0999 V2000
   26.4130    7.0420   -8.4430 C   0  0  0  0  0  0  0  0  0  0  0  0
   27.2870    7.0680   -9.5210 N   0  0  0  0  0  0  0  0  0  0  0  0
   27.6910    8.2820  -10.0610 C   0  0  0  0  0  0  0  0  0  0  0  0
   28.5300    7.9530  -11.0900 N   0  0  0  0  0  0  0  0  0  0  0  0
   25.9460    8.2310   -7.8990 N   0  0  0  0  0  0  0  0  0  0  0  0
   26.3480    9.4470   -8.4360 C   0  0  0  0  0  0  0  0  0  0  0  0
   27.2230    9.4740   -9.5180 C   0  0  0  0  0  0  0  0  0  0  0  0
   29.1230    9.0840  -11.7940 C   0  0  0  0  0  0  0  0  0  0  0  0
   30.4760    9.1910  -12.0980 N   0  0  0  0  0  0  0  0  0  0  0  0
   30.9490   10.3080  -12.7770 C   0  0  0  0  0  0  0  0  0  0  0  0
   30.0720   11.3180  -13.1490 C   0  0  0  0  0  0  0  0  0  0  0  0
   28.7200   11.2140  -12.8440 C   0  0  0  0  0  0  0  0  0  0  0  0
   28.2420   10.0790  -12.1900 C   0  0  0  0  0  0  0  0  0  0  0  0
   27.6250   10.6780  -10.0490 O   0  0  0  0  0  0  0  0  0  0  0  0
   27.2120   11.8330   -9.5820 C   0  0  0  0  0  0  0  0  0  0  0  0
   28.0720   12.6900   -8.9060 C   0  0  0  0  0  0  0  0  0  0  0  0
   27.5990   13.8980   -8.4060 C   0  0  0  0  0  0  0  0  0  0  0  0
   26.2650   14.2470   -8.5810 C   0  0  0  0  0  0  0  0  0  0  0  0
   25.4040   13.3890   -9.2560 N   0  0  0  0  0  0  0  0  0  0  0  0
   25.8790   12.1810   -9.7570 C   0  0  0  0  0  0  0  0  0  0  0  0
   25.7510   15.5570   -8.0380 C   0  0  1  0  0  0  0  0  0  0  0  0
   26.0903    6.0794   -8.0197 H   0  0  0  0  0  0  0  0  0  0  0  0
   28.7287    6.9761  -11.3491 H   0  0  0  0  0  0  0  0  0  0  0  0
   25.9750   10.3884   -8.0064 H   0  0  0  0  0  0  0  0  0  0  0  0
   32.0186   10.3917  -13.0197 H   0  0  0  0  0  0  0  0  0  0  0  0
   30.4477   12.2016  -13.6858 H   0  0  0  0  0  0  0  0  0  0  0  0
   28.0289   12.0248  -13.1178 H   0  0  0  0  0  0  0  0  0  0  0  0
   27.1659    9.9729  -11.9882 H   0  0  0  0  0  0  0  0  0  0  0  0
   29.1273   12.4126   -8.7664 H   0  0  0  0  0  0  0  0  0  0  0  0
   28.2801   14.5771   -7.8722 H   0  0  0  0  0  0  0  0  0  0  0  0
   25.1988   11.5017  -10.2916 H   0  0  0  0  0  0  0  0  0  0  0  0
   25.7624   15.5279   -6.9384 H   0  0  0  0  0  0  0  0  0  0  0  0
   26.3940   16.3773   -8.3898 H   0  0  0  0  0  0  0  0  0  0  0  0
   24.7218   15.7212   -8.3898 H   0  0  0  0  0  0  0  0  0  0  0  0
  1  2  2  0
  1  5  1  0
  2  3  1  0
  3  4  1  0
  3  7  2  0
  5  6  2  0
  6  7  1  0
  7 14  1  0
  4  8  1  0
  8 13  1  0
  8  9  2  0
  9 10  1  0
 10 11  2  0
 11 12  1  0
 12 13  2  0
 14 15  1  0
 15 20  1  0
 15 16  2  0
 16 17  1  0
 17 18  2  0
 18 19  1  0
 18 21  1  0
 19 20  2  0
  1 22  1  0
  4 23  1  0
  6 24  1  0
 10 25  1  0
 11 26  1  0
 12 27  1  0
 13 28  1  0
 16 29  1  0
 17 30  1  0
 20 31  1  0
 21 32  1  1
 21 33  1  0
 21 34  1  0
M  END
>  <Pose ID>  (5)
79

>  <Score>  (5)
-8.305313110351562

>  <smiles>  (5)
Cc1ccc(Oc2cncnc2Nc2ccccn2)cn1

$$$$

     RDKit          3D

 25 26  0  0  0  0  0  0  0  0999 V2000
   26.4180    7.0420   -8.4480 C   0  0  0  0  0  0  0  0  0  0  0  0
   27.3220    7.0840   -9.5030 N   0  0  0  0  0  0  0  0  0  0  0  0
   27.6760    8.3020  -10.0680 C   0  0  0  0  0  0  0  0  0  0  0  0
   28.5610    7.9900  -11.0630 N   0  0  0  0  0  0  0  0  0  0  0  0
   25.8700    8.2180   -7.9570 N   0  0  0  0  0  0  0  0  0  0  0  0
   26.2220    9.4390   -8.5210 C   0  0  0  0  0  0  0  0  0  0  0  0
   27.1260    9.4820   -9.5760 C   0  0  0  0  0  0  0  0  0  0  0  0
   29.1130    9.1300  -11.7840 C   0  0  0  0  0  0  0  0  0  0  0  0
   30.4670    9.3030  -12.0530 N   0  0  0  0  0  0  0  0  0  0  0  0
   30.9000   10.4240  -12.7520 C   0  0  0  0  0  0  0  0  0  0  0  0
   29.9800   11.3710  -13.1810 C   0  0  0  0  0  0  0  0  0  0  0  0
   28.6260   11.2010  -12.9120 C   0  0  0  0  0  0  0  0  0  0  0  0
   28.1920   10.0630  -12.2380 C   0  0  0  0  0  0  0  0  0  0  0  0
   27.4780   10.6900  -10.1340 O   0  0  0  0  0  0  0  0  0  0  0  0
   26.8000   11.8960   -9.8150 C   0  0  1  0  0  0  0  0  0  0  0  0
   26.1371    6.0763   -8.0024 H   0  0  0  0  0  0  0  0  0  0  0  0
   28.8191    7.0183  -11.2869 H   0  0  0  0  0  0  0  0  0  0  0  0
   25.7852   10.3708   -8.1325 H   0  0  0  0  0  0  0  0  0  0  0  0
   31.9705   10.5605  -12.9649 H   0  0  0  0  0  0  0  0  0  0  0  0
   30.3225   12.2576  -13.7348 H   0  0  0  0  0  0  0  0  0  0  0  0
   27.9003   11.9636  -13.2309 H   0  0  0  0  0  0  0  0  0  0  0  0
   27.1175    9.9033  -12.0651 H   0  0  0  0  0  0  0  0  0  0  0  0
   26.7391   12.0043   -8.7220 H   0  0  0  0  0  0  0  0  0  0  0  0
   27.3507   12.7491  -10.2379 H   0  0  0  0  0  0  0  0  0  0  0  0
   25.7849   11.8689  -10.2379 H   0  0  0  0  0  0  0  0  0  0  0  0
  1  2  2  0
  1  5  1  0
  2  3  1  0
  3  4  1  0
  3  7  2  0
  5  6  2  0
  6  7  1  0
  7 14  1  0
  4  8  1  0
  8 13  1  0
  8  9  2  0
  9 10  1  0
 10 11  2  0
 11 12  1  0
 12 13  2  0
 14 15  1  0
  1 16  1  0
  4 17  1  0
  6 18  1  0
 10 19  1  0
 11 20  1  0
 12 21  1  0
 13 22  1  0
 15 23  1  1
 15 24  1  0
 15 25  1  0
M  END
>  <Pose ID>  (6)
66

>  <Score>  (6)
-8.297698974609375

>  <smiles>  (6)
COc1cncnc1Nc1ccccn1

$$$$

     RDKit          3D

 40 42  0  0  0  0  0  0  0  0999 V2000
   27.6540    8.3290  -10.3260 C   0  0  0  0  0  0  0  0  0  0  0  0
   27.4410    7.1150   -9.6870 N   0  0  0  0  0  0  0  0  0  0  0  0
   26.5710    7.0420   -8.6070 C   0  0  0  0  0  0  0  0  0  0  0  0
   25.9150    8.1840   -8.1640 N   0  0  0  0  0  0  0  0  0  0  0  0
   28.4780    8.3090  -11.2890 N   0  0  0  0  0  0  0  0  0  0  0  0
   26.1270    9.4000   -8.8040 C   0  0  0  0  0  0  0  0  0  0  0  0
   26.9870    9.4630   -9.9020 C   0  0  0  0  0  0  0  0  0  0  0  0
   28.7090    9.4370  -11.9540 C   0  0  0  0  0  0  0  0  0  0  0  0
   29.9450   10.0700  -11.9010 N   0  0  0  0  0  0  0  0  0  0  0  0
   30.1540   11.2460  -12.6120 C   0  0  0  0  0  0  0  0  0  0  0  0
   29.1250   11.7910  -13.3720 C   0  0  0  0  0  0  0  0  0  0  0  0
   27.8880   11.1580  -13.4250 C   0  0  0  0  0  0  0  0  0  0  0  0
   27.6940    9.9640  -12.7370 C   0  0  0  0  0  0  0  0  0  0  0  0
   29.3110    7.2510  -11.8950 C   0  0  1  0  0  0  0  0  0  0  0  0
   29.3310   12.9590  -14.0730 O   0  0  0  0  0  0  0  0  0  0  0  0
   29.3960   14.0540  -13.1690 C   0  0  1  0  0  0  0  0  0  0  0  0
   25.6220   10.6520   -8.5520 N   0  0  0  0  0  0  0  0  0  0  0  0
   26.3930   11.8960   -8.3200 C   0  0  0  0  0  0  0  0  0  0  0  0
   26.5550   12.3360   -7.0110 C   0  0  0  0  0  0  0  0  0  0  0  0
   27.2750   13.4960   -6.7520 C   0  0  0  0  0  0  0  0  0  0  0  0
   27.8340   14.2160   -7.8010 C   0  0  0  0  0  0  0  0  0  0  0  0
   27.6720   13.7750   -9.1100 C   0  0  0  0  0  0  0  0  0  0  0  0
   26.9520   12.6160   -9.3690 C   0  0  0  0  0  0  0  0  0  0  0  0
   26.4011    6.0796   -8.1020 H   0  0  0  0  0  0  0  0  0  0  0  0
   27.1340   10.4165  -10.4305 H   0  0  0  0  0  0  0  0  0  0  0  0
   31.1333   11.7454  -12.5734 H   0  0  0  0  0  0  0  0  0  0  0  0
   27.0663   11.5992  -14.0083 H   0  0  0  0  0  0  0  0  0  0  0  0
   26.7318    9.4366  -12.8149 H   0  0  0  0  0  0  0  0  0  0  0  0
   29.7811    6.6539  -11.0997 H   0  0  0  0  0  0  0  0  0  0  0  0
   28.6805    6.5999  -12.5183 H   0  0  0  0  0  0  0  0  0  0  0  0
   30.0919    7.7111  -12.5183 H   0  0  0  0  0  0  0  0  0  0  0  0
   29.3737   13.6780  -12.1355 H   0  0  0  0  0  0  0  0  0  0  0  0
   30.3289   14.6124  -13.3360 H   0  0  0  0  0  0  0  0  0  0  0  0
   28.5357   14.7189  -13.3360 H   0  0  0  0  0  0  0  0  0  0  0  0
   24.5959   10.7354   -8.5209 H   0  0  0  0  0  0  0  0  0  0  0  0
   26.1132   11.7659   -6.1805 H   0  0  0  0  0  0  0  0  0  0  0  0
   27.4025   13.8444   -5.7164 H   0  0  0  0  0  0  0  0  0  0  0  0
   28.4042   15.1341   -7.5961 H   0  0  0  0  0  0  0  0  0  0  0  0
   28.1144   14.3445   -9.9406 H   0  0  0  0  0  0  0  0  0  0  0  0
   26.8242   12.2679  -10.4046 H   0  0  0  0  0  0  0  0  0  0  0  0
  1  5  1  0
  1  7  1  0
  1  2  2  0
  2  3  1  0
  3  4  2  0
  4  6  1  0
  5  8  1  0
  5 14  1  0
  6  7  2  0
  6 17  1  0
  8 13  1  0
  8  9  2  0
  9 10  1  0
 10 11  2  0
 11 15  1  0
 11 12  1  0
 12 13  2  0
 15 16  1  0
 17 18  1  0
 18 23  1  0
 18 19  2  0
 19 20  1  0
 20 21  2  0
 21 22  1  0
 22 23  2  0
  3 24  1  0
  7 25  1  0
 10 26  1  0
 12 27  1  0
 13 28  1  0
 14 29  1  1
 14 30  1  0
 14 31  1  0
 16 32  1  1
 16 33  1  0
 16 34  1  0
 17 35  1  0
 19 36  1  0
 20 37  1  0
 21 38  1  0
 22 39  1  0
 23 40  1  0
M  END
>  <Pose ID>  (7)
157

>  <Score>  (7)
-8.24374008178711

>  <smiles>  (7)
COc1ccc(N(C)c2cc(Nc3ccccc3)ncn2)nc1

$$$$

     RDKit          3D

 32 34  0  0  0  0  0  0  0  0999 V2000
   26.4130    7.0420   -8.4420 C   0  0  0  0  0  0  0  0  0  0  0  0
   27.2840    7.0650   -9.5230 N   0  0  0  0  0  0  0  0  0  0  0  0
   27.6920    8.2780  -10.0610 C   0  0  0  0  0  0  0  0  0  0  0  0
   28.5280    7.9450  -11.0930 N   0  0  0  0  0  0  0  0  0  0  0  0
   25.9510    8.2330   -7.8980 N   0  0  0  0  0  0  0  0  0  0  0  0
   26.3580    9.4480   -8.4350 C   0  0  0  0  0  0  0  0  0  0  0  0
   27.2310    9.4710   -9.5180 C   0  0  0  0  0  0  0  0  0  0  0  0
   29.1260    9.0730  -11.7970 C   0  0  0  0  0  0  0  0  0  0  0  0
   30.4780    9.1750  -12.1040 N   0  0  0  0  0  0  0  0  0  0  0  0
   30.9550   10.2900  -12.7830 C   0  0  0  0  0  0  0  0  0  0  0  0
   30.0810   11.3040  -13.1530 C   0  0  0  0  0  0  0  0  0  0  0  0
   28.7290   11.2060  -12.8460 C   0  0  0  0  0  0  0  0  0  0  0  0
   28.2480   10.0740  -12.1920 C   0  0  0  0  0  0  0  0  0  0  0  0
   27.6370   10.6750  -10.0500 O   0  0  0  0  0  0  0  0  0  0  0  0
   27.2370   11.8260   -9.5680 C   0  0  0  0  0  0  0  0  0  0  0  0
   28.0980   12.6920   -8.9060 C   0  0  0  0  0  0  0  0  0  0  0  0
   27.6240   13.9000   -8.4100 C   0  0  0  0  0  0  0  0  0  0  0  0
   26.2870   14.2430   -8.5760 C   0  0  0  0  0  0  0  0  0  0  0  0
   25.4250   13.3760   -9.2370 C   0  0  0  0  0  0  0  0  0  0  0  0
   25.8840   12.1850   -9.7680 C   0  0  0  0  0  0  0  0  0  0  0  0
   26.0891    6.0806   -8.0167 H   0  0  0  0  0  0  0  0  0  0  0  0
   28.7207    6.9673  -11.3534 H   0  0  0  0  0  0  0  0  0  0  0  0
   25.9903   10.3910   -8.0042 H   0  0  0  0  0  0  0  0  0  0  0  0
   32.0246   10.3693  -13.0273 H   0  0  0  0  0  0  0  0  0  0  0  0
   30.4595   12.1863  -13.6900 H   0  0  0  0  0  0  0  0  0  0  0  0
   28.0409   12.0198  -13.1186 H   0  0  0  0  0  0  0  0  0  0  0  0
   27.1718    9.9728  -11.9882 H   0  0  0  0  0  0  0  0  0  0  0  0
   29.1560   12.4211   -8.7744 H   0  0  0  0  0  0  0  0  0  0  0  0
   28.3066   14.5851   -7.8859 H   0  0  0  0  0  0  0  0  0  0  0  0
   25.9116   15.2000   -8.1844 H   0  0  0  0  0  0  0  0  0  0  0  0
   24.3624   13.6413   -9.3391 H   0  0  0  0  0  0  0  0  0  0  0  0
   25.2087   11.5283  -10.3360 H   0  0  0  0  0  0  0  0  0  0  0  0
  1  2  2  0
  1  5  1  0
  2  3  1  0
  3  4  1  0
  3  7  2  0
  5  6  2  0
  6  7  1  0
  7 14  1  0
  4  8  1  0
  8 13  1  0
  8  9  2  0
  9 10  1  0
 10 11  2  0
 11 12  1  0
 12 13  2  0
 14 15  1  0
 15 20  1  0
 15 16  2  0
 16 17  1  0
 17 18  2  0
 18 19  1  0
 19 20  2  0
  1 21  1  0
  4 22  1  0
  6 23  1  0
 10 24  1  0
 11 25  1  0
 12 26  1  0
 13 27  1  0
 16 28  1  0
 17 29  1  0
 18 30  1  0
 19 31  1  0
 20 32  1  0
M  END
>  <Pose ID>  (8)
101

>  <Score>  (8)
-8.152864456176758

>  <smiles>  (8)
c1ccc(Oc2cncnc2Nc2ccccn2)cc1

$$$$

     RDKit          3D

 43 45  0  0  0  0  0  0  0  0999 V2000
   27.5850    8.3280  -10.2720 C   0  0  0  0  0  0  0  0  0  0  0  0
   27.4090    7.1240   -9.6030 N   0  0  0  0  0  0  0  0  0  0  0  0
   26.5510    7.0520   -8.5130 C   0  0  0  0  0  0  0  0  0  0  0  0
   25.8650    8.1860   -8.0920 N   0  0  0  0  0  0  0  0  0  0  0  0
   28.4020    8.3070  -11.2400 N   0  0  0  0  0  0  0  0  0  0  0  0
   26.0400    9.3900   -8.7610 C   0  0  0  0  0  0  0  0  0  0  0  0
   26.8900    9.4520   -9.8680 C   0  0  0  0  0  0  0  0  0  0  0  0
   28.5960    9.4250  -11.9310 C   0  0  0  0  0  0  0  0  0  0  0  0
   29.8120   10.0950  -11.9060 N   0  0  0  0  0  0  0  0  0  0  0  0
   29.9840   11.2600  -12.6440 C   0  0  0  0  0  0  0  0  0  0  0  0
   28.9340   11.7560  -13.4100 C   0  0  0  0  0  0  0  0  0  0  0  0
   27.7160   11.0880  -13.4360 C   0  0  0  0  0  0  0  0  0  0  0  0
   27.5600    9.9070  -12.7190 C   0  0  0  0  0  0  0  0  0  0  0  0
   29.2580    7.2580  -11.8290 C   0  0  1  0  0  0  0  0  0  0  0  0
   29.1030   12.9130  -14.1380 O   0  0  0  0  0  0  0  0  0  0  0  0
   29.1440   14.0300  -13.2590 C   0  0  1  0  0  0  0  0  0  0  0  0
   27.7950   14.7270  -13.0370 C   0  0  1  0  0  0  0  0  0  0  0  0
   25.2790   10.3600   -8.1550 N   0  0  0  0  0  0  0  0  0  0  0  0
   25.4810   11.8070   -8.5690 C   0  0  2  0  0  0  0  0  0  0  0  0
   26.9730   12.0240   -8.8850 C   0  0  1  0  0  0  0  0  0  0  0  0
   26.8580   13.3300   -8.0510 C   0  0  1  0  0  0  0  0  0  0  0  0
   25.5640   12.8150   -7.5360 C   0  0  1  0  0  0  0  0  0  0  0  0
   26.4142    6.0980   -7.9828 H   0  0  0  0  0  0  0  0  0  0  0  0
   27.0062   10.3970  -10.4189 H   0  0  0  0  0  0  0  0  0  0  0  0
   30.9483   11.7888  -12.6225 H   0  0  0  0  0  0  0  0  0  0  0  0
   26.8776   11.4923  -14.0221 H   0  0  0  0  0  0  0  0  0  0  0  0
   26.6118    9.3524  -12.7765 H   0  0  0  0  0  0  0  0  0  0  0  0
   29.7321    6.6770  -11.0243 H   0  0  0  0  0  0  0  0  0  0  0  0
   28.6439    6.5899  -12.4508 H   0  0  0  0  0  0  0  0  0  0  0  0
   30.0357    7.7256  -12.4508 H   0  0  0  0  0  0  0  0  0  0  0  0
   29.5143   13.6834  -12.2829 H   0  0  0  0  0  0  0  0  0  0  0  0
   29.8008   14.7732  -13.7348 H   0  0  0  0  0  0  0  0  0  0  0  0
   27.6060   14.8247  -11.9578 H   0  0  0  0  0  0  0  0  0  0  0  0
   27.8183   15.7259  -13.4970 H   0  0  0  0  0  0  0  0  0  0  0  0
   26.9938   14.1300  -13.4970 H   0  0  0  0  0  0  0  0  0  0  0  0
   24.5859   10.1110   -7.4349 H   0  0  0  0  0  0  0  0  0  0  0  0
   24.6573   11.9129   -9.2904 H   0  0  0  0  0  0  0  0  0  0  0  0
   27.6502   11.2651   -8.4661 H   0  0  0  0  0  0  0  0  0  0  0  0
   27.3639   12.0151   -9.9131 H   0  0  0  0  0  0  0  0  0  0  0  0
   27.6384   13.4553   -7.2859 H   0  0  0  0  0  0  0  0  0  0  0  0
   26.9394   14.3224   -8.5184 H   0  0  0  0  0  0  0  0  0  0  0  0
   24.7499   13.5536   -7.5769 H   0  0  0  0  0  0  0  0  0  0  0  0
   25.4931   12.5070   -6.4824 H   0  0  0  0  0  0  0  0  0  0  0  0
  1  5  1  0
  1  7  1  0
  1  2  2  0
  2  3  1  0
  3  4  2  0
  4  6  1  0
  5  8  1  0
  5 14  1  0
  6  7  2  0
  6 18  1  0
  8 13  1  0
  8  9  2  0
  9 10  1  0
 10 11  2  0
 11 15  1  0
 11 12  1  0
 12 13  2  0
 18 19  1  0
 19 20  1  0
 19 22  1  0
 20 21  1  0
 21 22  1  0
 15 16  1  0
 16 17  1  0
  3 23  1  0
  7 24  1  0
 10 25  1  0
 12 26  1  0
 13 27  1  0
 14 28  1  1
 14 29  1  0
 14 30  1  0
 16 31  1  1
 16 32  1  0
 17 33  1  1
 17 34  1  0
 17 35  1  0
 18 36  1  0
 19 37  1  6
 20 38  1  1
 20 39  1  0
 21 40  1  1
 21 41  1  0
 22 42  1  6
 22 43  1  0
M  END
>  <Pose ID>  (9)
170

>  <Score>  (9)
-8.133672714233398

>  <smiles>  (9)
CCOc1ccc(N(C)c2cc(NC3CCC3)ncn2)nc1

$$$$

     RDKit          3D

 34 37  0  0  0  0  0  0  0  0999 V2000
   27.4900    7.9930  -10.0650 C   0  0  0  0  0  0  0  0  0  0  0  0
   27.1560    7.0450   -9.1320 N   0  0  0  0  0  0  0  0  0  0  0  0
   26.6740    7.4100   -7.9170 C   0  0  0  0  0  0  0  0  0  0  0  0
   28.0390    7.9470  -11.3390 C   0  0  0  0  0  0  0  0  0  0  0  0
   28.2360    9.1220  -12.0540 C   0  0  0  0  0  0  0  0  0  0  0  0
   27.8830   10.3440  -11.4940 C   0  0  0  0  0  0  0  0  0  0  0  0
   27.3320   10.3890  -10.2180 C   0  0  0  0  0  0  0  0  0  0  0  0
   27.1360    9.2160   -9.5040 C   0  0  0  0  0  0  0  0  0  0  0  0
   26.6620    8.8350   -7.9870 O   0  0  0  0  0  0  0  0  0  0  0  0
   28.0840   11.5340  -12.2170 C   0  0  0  0  0  0  0  0  0  0  0  0
   27.2170   12.5220  -12.3510 N   0  0  0  0  0  0  0  0  0  0  0  0
   27.7780   13.5070  -12.9960 N   0  0  0  0  0  0  0  0  0  0  0  0
   28.9830   13.2310  -13.2870 C   0  0  0  0  0  0  0  0  0  0  0  0
   29.2090   11.9460  -12.8130 N   0  0  0  0  0  0  0  0  0  0  0  0
   30.4440   11.3380  -13.0140 C   0  0  0  0  0  0  0  0  0  0  0  0
   31.4510   12.0170  -13.6890 C   0  0  0  0  0  0  0  0  0  0  0  0
   31.2230   13.3020  -14.1660 N   0  0  0  0  0  0  0  0  0  0  0  0
   29.9900   13.9100  -13.9640 C   0  0  0  0  0  0  0  0  0  0  0  0
   26.9460   11.7150   -9.6080 C   0  0  1  0  0  0  0  0  0  0  0  0
   25.4270   11.9300   -9.7880 C   0  0  1  0  0  0  0  0  0  0  0  0
   24.6010   10.8290   -9.1070 C   0  0  1  0  0  0  0  0  0  0  0  0
   26.3671    6.7641   -7.0812 H   0  0  0  0  0  0  0  0  0  0  0  0
   28.3182    6.9800  -11.7828 H   0  0  0  0  0  0  0  0  0  0  0  0
   28.6714    9.0850  -13.0635 H   0  0  0  0  0  0  0  0  0  0  0  0
   30.6233   10.3197  -12.6386 H   0  0  0  0  0  0  0  0  0  0  0  0
   32.4285   11.5374  -13.8457 H   0  0  0  0  0  0  0  0  0  0  0  0
   29.8106   14.9282  -14.3396 H   0  0  0  0  0  0  0  0  0  0  0  0
   27.1935   11.7136   -8.5362 H   0  0  0  0  0  0  0  0  0  0  0  0
   27.4971   12.5267  -10.1055 H   0  0  0  0  0  0  0  0  0  0  0  0
   25.1523   12.9010   -9.3503 H   0  0  0  0  0  0  0  0  0  0  0  0
   25.2068   11.9001  -10.8653 H   0  0  0  0  0  0  0  0  0  0  0  0
   24.6798   10.9340   -8.0149 H   0  0  0  0  0  0  0  0  0  0  0  0
   23.5473   10.9212   -9.4092 H   0  0  0  0  0  0  0  0  0  0  0  0
   24.9842    9.8432   -9.4092 H   0  0  0  0  0  0  0  0  0  0  0  0
  1  4  2  0
  1  8  1  0
  1  2  1  0
  2  3  2  0
  3  9  1  0
  4  5  1  0
  5  6  2  0
  6 10  1  0
  6  7  1  0
  7 19  1  0
  7  8  2  0
  8  9  1  0
 10 14  1  0
 10 11  2  0
 11 12  1  0
 12 13  2  0
 13 18  1  0
 13 14  1  0
 14 15  1  0
 15 16  2  0
 16 17  1  0
 17 18  2  0
 19 20  1  0
 20 21  1  0
  3 22  1  0
  4 23  1  0
  5 24  1  0
 15 25  1  0
 16 26  1  0
 18 27  1  0
 19 28  1  1
 19 29  1  0
 20 30  1  1
 20 31  1  0
 21 32  1  1
 21 33  1  0
 21 34  1  0
M  END
>  <Pose ID>  (10)
123

>  <Score>  (10)
-8.107413291931152

>  <smiles>  (10)
CCCc1c(-c2nnc3cnccn23)ccc2ncoc12

$$$$

     RDKit          3D

 39 41  0  0  0  0  0  0  0  0999 V2000
   28.2630    8.1720  -10.7060 C   0  0  0  0  0  0  0  0  0  0  0  0
   27.6420    7.3540   -9.8810 N   0  0  0  0  0  0  0  0  0  0  0  0
   26.5030    7.8370   -9.2470 C   0  0  0  0  0  0  0  0  0  0  0  0
   25.8260    7.0420   -8.4120 O   0  0  0  0  0  0  0  0  0  0  0  0
   27.8510    9.4720  -10.9810 C   0  0  0  0  0  0  0  0  0  0  0  0
   26.7640    9.9470  -10.3770 C   0  0  0  0  0  0  0  0  0  0  0  0
   26.0650    9.1320   -9.4930 C   0  0  0  0  0  0  0  0  0  0  0  0
   28.5760   10.2570  -11.8670 C   0  0  0  0  0  0  0  0  0  0  0  0
   29.7120    9.7490  -12.4780 C   0  0  0  0  0  0  0  0  0  0  0  0
   30.1270    8.4510  -12.2030 C   0  0  0  0  0  0  0  0  0  0  0  0
   29.4410    7.6610  -11.3000 C   0  0  0  0  0  0  0  0  0  0  0  0
   26.0320    7.4380   -7.0550 C   0  0  1  0  0  0  0  0  0  0  0  0
   24.9400    9.6090   -8.8620 N   0  0  0  0  0  0  0  0  0  0  0  0
   24.6440   10.7710   -8.0500 C   0  0  0  0  0  0  0  0  0  0  0  0
   25.7150   11.6520   -8.1250 N   0  0  0  0  0  0  0  0  0  0  0  0
   25.6840   12.8460   -7.4130 C   0  0  0  0  0  0  0  0  0  0  0  0
   24.5820   13.1560   -6.6250 C   0  0  0  0  0  0  0  0  0  0  0  0
   23.5110   12.2740   -6.5500 N   0  0  0  0  0  0  0  0  0  0  0  0
   23.5420   11.0810   -7.2620 C   0  0  0  0  0  0  0  0  0  0  0  0
   27.9760   11.4810  -11.9730 N   0  0  0  0  0  0  0  0  0  0  0  0
   27.1990   11.8170  -13.1750 C   0  0  1  0  0  0  0  0  0  0  0  0
   28.3890   12.7270  -11.2900 C   0  0  1  0  0  0  0  0  0  0  0  0
   26.4221   10.9736  -10.5750 H   0  0  0  0  0  0  0  0  0  0  0  0
   30.2848   10.3727  -13.1801 H   0  0  0  0  0  0  0  0  0  0  0  0
   31.0146    8.0467  -12.7117 H   0  0  0  0  0  0  0  0  0  0  0  0
   29.8041    6.6537  -11.0478 H   0  0  0  0  0  0  0  0  0  0  0  0
   25.6302    6.6657   -6.3826 H   0  0  0  0  0  0  0  0  0  0  0  0
   27.1090    7.5621   -6.8687 H   0  0  0  0  0  0  0  0  0  0  0  0
   25.5154    8.3911   -6.8687 H   0  0  0  0  0  0  0  0  0  0  0  0
   24.1202    9.0004   -8.9981 H   0  0  0  0  0  0  0  0  0  0  0  0
   26.5313   13.5449   -7.4734 H   0  0  0  0  0  0  0  0  0  0  0  0
   24.5576   14.0998   -6.0606 H   0  0  0  0  0  0  0  0  0  0  0  0
   22.6946   10.3823   -7.2019 H   0  0  0  0  0  0  0  0  0  0  0  0
   26.2270   12.2373  -12.8776 H   0  0  0  0  0  0  0  0  0  0  0  0
   27.7508   12.5569  -13.7734 H   0  0  0  0  0  0  0  0  0  0  0  0
   27.0379   10.9082  -13.7734 H   0  0  0  0  0  0  0  0  0  0  0  0
   28.3407   12.5814  -10.2008 H   0  0  0  0  0  0  0  0  0  0  0  0
   29.4192   12.9804  -11.5808 H   0  0  0  0  0  0  0  0  0  0  0  0
   27.7141   13.5455  -11.5808 H   0  0  0  0  0  0  0  0  0  0  0  0
  1 11  1  0
  1  5  1  0
  1  2  2  0
  2  3  1  0
  3  7  2  0
  3  4  1  0
  5  8  1  0
  5  6  2  0
  6  7  1  0
  7 13  1  0
  8  9  2  0
  8 20  1  0
  9 10  1  0
 10 11  2  0
 13 14  1  0
 14 15  2  0
 14 19  1  0
 15 16  1  0
 16 17  2  0
 17 18  1  0
 18 19  2  0
 20 21  1  0
 20 22  1  0
  4 12  1  0
  6 23  1  0
  9 24  1  0
 10 25  1  0
 11 26  1  0
 12 27  1  1
 12 28  1  0
 12 29  1  0
 13 30  1  0
 16 31  1  0
 17 32  1  0
 19 33  1  0
 21 34  1  1
 21 35  1  0
 21 36  1  0
 22 37  1  1
 22 38  1  0
 22 39  1  0
M  END
>  <Pose ID>  (11)
151

>  <Score>  (11)
-8.103639602661133

>  <smiles>  (11)
COc1nc2cccc(N(C)C)c2cc1Nc1cnccn1

$$$$

     RDKit          3D

 31 34  0  0  0  0  0  0  0  0999 V2000
   27.4820    7.9960  -10.0710 C   0  0  0  0  0  0  0  0  0  0  0  0
   27.1450    7.0490   -9.1370 N   0  0  0  0  0  0  0  0  0  0  0  0
   26.6560    7.4160   -7.9260 C   0  0  0  0  0  0  0  0  0  0  0  0
   28.0370    7.9480  -11.3420 C   0  0  0  0  0  0  0  0  0  0  0  0
   28.2350    9.1220  -12.0590 C   0  0  0  0  0  0  0  0  0  0  0  0
   27.8770   10.3440  -11.5040 C   0  0  0  0  0  0  0  0  0  0  0  0
   27.3190   10.3910  -10.2300 C   0  0  0  0  0  0  0  0  0  0  0  0
   27.1220    9.2190   -9.5150 C   0  0  0  0  0  0  0  0  0  0  0  0
   26.6420    8.8410   -7.9990 O   0  0  0  0  0  0  0  0  0  0  0  0
   28.0790   11.5330  -12.2280 C   0  0  0  0  0  0  0  0  0  0  0  0
   27.2100   12.5190  -12.3690 N   0  0  0  0  0  0  0  0  0  0  0  0
   27.7720   13.5030  -13.0140 N   0  0  0  0  0  0  0  0  0  0  0  0
   28.9790   13.2290  -13.2980 C   0  0  0  0  0  0  0  0  0  0  0  0
   29.2060   11.9460  -12.8200 N   0  0  0  0  0  0  0  0  0  0  0  0
   30.4430   11.3400  -13.0130 C   0  0  0  0  0  0  0  0  0  0  0  0
   31.4520   12.0200  -13.6850 C   0  0  0  0  0  0  0  0  0  0  0  0
   31.2230   13.3030  -14.1660 N   0  0  0  0  0  0  0  0  0  0  0  0
   29.9880   13.9090  -13.9720 C   0  0  0  0  0  0  0  0  0  0  0  0
   26.9270   11.7180   -9.6250 C   0  0  1  0  0  0  0  0  0  0  0  0
   25.4090   11.9290   -9.8130 C   0  0  1  0  0  0  0  0  0  0  0  0
   26.3456    6.7714   -7.0904 H   0  0  0  0  0  0  0  0  0  0  0  0
   28.3203    6.9805  -11.7821 H   0  0  0  0  0  0  0  0  0  0  0  0
   28.6753    9.0835  -13.0663 H   0  0  0  0  0  0  0  0  0  0  0  0
   30.6227   10.3231  -12.6340 H   0  0  0  0  0  0  0  0  0  0  0  0
   32.4314   11.5424  -13.8359 H   0  0  0  0  0  0  0  0  0  0  0  0
   29.8082   14.9258  -14.3511 H   0  0  0  0  0  0  0  0  0  0  0  0
   27.1692   11.7198   -8.5520 H   0  0  0  0  0  0  0  0  0  0  0  0
   27.4788   12.5297  -10.1217 H   0  0  0  0  0  0  0  0  0  0  0  0
   24.9235   11.9965   -8.8283 H   0  0  0  0  0  0  0  0  0  0  0  0
   25.2347   12.8600  -10.3723 H   0  0  0  0  0  0  0  0  0  0  0  0
   24.9874   11.0808  -10.3723 H   0  0  0  0  0  0  0  0  0  0  0  0
  1  4  2  0
  1  8  1  0
  1  2  1  0
  2  3  2  0
  3  9  1  0
  4  5  1  0
  5  6  2  0
  6 10  1  0
  6  7  1  0
  7 19  1  0
  7  8  2  0
  8  9  1  0
 10 14  1  0
 10 11  2  0
 11 12  1  0
 12 13  2  0
 13 18  1  0
 13 14  1  0
 14 15  1  0
 15 16  2  0
 16 17  1  0
 17 18  2  0
 19 20  1  0
  3 21  1  0
  4 22  1  0
  5 23  1  0
 15 24  1  0
 16 25  1  0
 18 26  1  0
 19 27  1  1
 19 28  1  0
 20 29  1  1
 20 30  1  0
 20 31  1  0
M  END
>  <Pose ID>  (12)
121

>  <Score>  (12)
-8.053237915039062

>  <smiles>  (12)
CCc1c(-c2nnc3cnccn23)ccc2ncoc12

$$$$

     RDKit          3D

 35 37  0  0  0  0  0  0  0  0999 V2000
   26.4130    7.0420   -8.4420 C   0  0  0  0  0  0  0  0  0  0  0  0
   27.2840    7.0650   -9.5230 N   0  0  0  0  0  0  0  0  0  0  0  0
   27.6920    8.2780  -10.0610 C   0  0  0  0  0  0  0  0  0  0  0  0
   28.5280    7.9450  -11.0930 N   0  0  0  0  0  0  0  0  0  0  0  0
   25.9510    8.2330   -7.8980 N   0  0  0  0  0  0  0  0  0  0  0  0
   26.3580    9.4480   -8.4350 C   0  0  0  0  0  0  0  0  0  0  0  0
   27.2310    9.4710   -9.5180 C   0  0  0  0  0  0  0  0  0  0  0  0
   29.1260    9.0730  -11.7970 C   0  0  0  0  0  0  0  0  0  0  0  0
   30.4780    9.1750  -12.1040 N   0  0  0  0  0  0  0  0  0  0  0  0
   30.9550   10.2900  -12.7830 C   0  0  0  0  0  0  0  0  0  0  0  0
   30.0810   11.3040  -13.1530 C   0  0  0  0  0  0  0  0  0  0  0  0
   28.7290   11.2060  -12.8460 C   0  0  0  0  0  0  0  0  0  0  0  0
   28.2480   10.0740  -12.1920 C   0  0  0  0  0  0  0  0  0  0  0  0
   27.6370   10.6750  -10.0500 O   0  0  0  0  0  0  0  0  0  0  0  0
   27.2370   11.8260   -9.5680 C   0  0  0  0  0  0  0  0  0  0  0  0
   28.0980   12.6920   -8.9060 C   0  0  0  0  0  0  0  0  0  0  0  0
   27.6240   13.9000   -8.4100 C   0  0  0  0  0  0  0  0  0  0  0  0
   26.2870   14.2430   -8.5760 C   0  0  0  0  0  0  0  0  0  0  0  0
   25.4250   13.3760   -9.2370 C   0  0  0  0  0  0  0  0  0  0  0  0
   25.8840   12.1850   -9.7680 C   0  0  0  0  0  0  0  0  0  0  0  0
   25.7720   15.5560   -8.0390 C   0  0  1  0  0  0  0  0  0  0  0  0
   26.0891    6.0806   -8.0167 H   0  0  0  0  0  0  0  0  0  0  0  0
   28.7207    6.9673  -11.3534 H   0  0  0  0  0  0  0  0  0  0  0  0
   25.9903   10.3910   -8.0042 H   0  0  0  0  0  0  0  0  0  0  0  0
   32.0246   10.3693  -13.0273 H   0  0  0  0  0  0  0  0  0  0  0  0
   30.4595   12.1863  -13.6900 H   0  0  0  0  0  0  0  0  0  0  0  0
   28.0409   12.0198  -13.1186 H   0  0  0  0  0  0  0  0  0  0  0  0
   27.1718    9.9728  -11.9882 H   0  0  0  0  0  0  0  0  0  0  0  0
   29.1560   12.4211   -8.7744 H   0  0  0  0  0  0  0  0  0  0  0  0
   28.3066   14.5851   -7.8859 H   0  0  0  0  0  0  0  0  0  0  0  0
   24.3624   13.6413   -9.3391 H   0  0  0  0  0  0  0  0  0  0  0  0
   25.2087   11.5283  -10.3360 H   0  0  0  0  0  0  0  0  0  0  0  0
   25.7816   15.5315   -6.9393 H   0  0  0  0  0  0  0  0  0  0  0  0
   26.4156   16.3747   -8.3931 H   0  0  0  0  0  0  0  0  0  0  0  0
   24.7434   15.7188   -8.3931 H   0  0  0  0  0  0  0  0  0  0  0  0
  1  2  2  0
  1  5  1  0
  2  3  1  0
  3  4  1  0
  3  7  2  0
  5  6  2  0
  6  7  1  0
  7 14  1  0
  4  8  1  0
  8 13  1  0
  8  9  2  0
  9 10  1  0
 10 11  2  0
 11 12  1  0
 12 13  2  0
 14 15  1  0
 15 20  1  0
 15 16  2  0
 16 17  1  0
 17 18  2  0
 18 19  1  0
 18 21  1  0
 19 20  2  0
  1 22  1  0
  4 23  1  0
  6 24  1  0
 10 25  1  0
 11 26  1  0
 12 27  1  0
 13 28  1  0
 16 29  1  0
 17 30  1  0
 19 31  1  0
 20 32  1  0
 21 33  1  1
 21 34  1  0
 21 35  1  0
M  END
>  <Pose ID>  (13)
103

>  <Score>  (13)
-8.042786598205566

>  <smiles>  (13)
Cc1ccc(Oc2cncnc2Nc2ccccn2)cc1

$$$$

     RDKit          3D

 28 31  0  0  0  0  0  0  0  0999 V2000
   27.6210    7.9860  -10.1110 C   0  0  0  0  0  0  0  0  0  0  0  0
   27.2680    7.0990   -9.1250 N   0  0  0  0  0  0  0  0  0  0  0  0
   26.4870    7.4940   -8.0890 C   0  0  0  0  0  0  0  0  0  0  0  0
   28.4240    7.9090  -11.2410 C   0  0  0  0  0  0  0  0  0  0  0  0
   28.5600    9.0130  -12.0740 C   0  0  0  0  0  0  0  0  0  0  0  0
   27.8920   10.1940  -11.7760 C   0  0  0  0  0  0  0  0  0  0  0  0
   27.0870   10.2700  -10.6440 C   0  0  0  0  0  0  0  0  0  0  0  0
   26.9520    9.1680   -9.8130 C   0  0  0  0  0  0  0  0  0  0  0  0
   26.2450    8.8720   -8.3700 O   0  0  0  0  0  0  0  0  0  0  0  0
   28.0310   11.3130  -12.6180 C   0  0  0  0  0  0  0  0  0  0  0  0
   27.0540   12.0880  -13.0550 N   0  0  0  0  0  0  0  0  0  0  0  0
   27.5590   13.0860  -13.7250 N   0  0  0  0  0  0  0  0  0  0  0  0
   28.8270   13.0250  -13.7440 C   0  0  0  0  0  0  0  0  0  0  0  0
   29.1680   11.8710  -13.0510 N   0  0  0  0  0  0  0  0  0  0  0  0
   30.5030   11.5020  -12.9280 C   0  0  0  0  0  0  0  0  0  0  0  0
   31.4970   12.2890  -13.4990 C   0  0  0  0  0  0  0  0  0  0  0  0
   31.1540   13.4420  -14.1950 N   0  0  0  0  0  0  0  0  0  0  0  0
   29.8210   13.8110  -14.3170 C   0  0  0  0  0  0  0  0  0  0  0  0
   26.3590   11.5530  -10.3200 C   0  0  1  0  0  0  0  0  0  0  0  0
   26.1272    6.8968   -7.2382 H   0  0  0  0  0  0  0  0  0  0  0  0
   28.9528    6.9737  -11.4770 H   0  0  0  0  0  0  0  0  0  0  0  0
   29.1964    8.9517  -12.9691 H   0  0  0  0  0  0  0  0  0  0  0  0
   30.7727   10.5877  -12.3791 H   0  0  0  0  0  0  0  0  0  0  0  0
   32.5535   11.9993  -13.4000 H   0  0  0  0  0  0  0  0  0  0  0  0
   29.5512   14.7248  -14.8667 H   0  0  0  0  0  0  0  0  0  0  0  0
   26.2921   11.6710   -9.2284 H   0  0  0  0  0  0  0  0  0  0  0  0
   26.9085   12.4045  -10.7478 H   0  0  0  0  0  0  0  0  0  0  0  0
   25.3462   11.5180  -10.7478 H   0  0  0  0  0  0  0  0  0  0  0  0
  1  4  2  0
  1  8  1  0
  1  2  1  0
  2  3  2  0
  3  9  1  0
  4  5  1  0
  5  6  2  0
  6 10  1  0
  6  7  1  0
  7 19  1  0
  7  8  2  0
  8  9  1  0
 10 11  2  0
 10 14  1  0
 11 12  1  0
 12 13  2  0
 13 18  1  0
 13 14  1  0
 14 15  1  0
 15 16  2  0
 16 17  1  0
 17 18  2  0
  3 20  1  0
  4 21  1  0
  5 22  1  0
 15 23  1  0
 16 24  1  0
 18 25  1  0
 19 26  1  1
 19 27  1  0
 19 28  1  0
M  END
>  <Pose ID>  (14)
120

>  <Score>  (14)
-8.03644847869873

>  <smiles>  (14)
Cc1c(-c2nnc3cnccn23)ccc2ncoc12

$$$$

     RDKit          3D

 35 37  0  0  0  0  0  0  0  0999 V2000
   26.4070    7.0420   -8.4410 C   0  0  0  0  0  0  0  0  0  0  0  0
   27.2810    7.0850   -9.5200 N   0  0  0  0  0  0  0  0  0  0  0  0
   27.6830    8.3080  -10.0400 C   0  0  0  0  0  0  0  0  0  0  0  0
   28.5230    7.9940  -11.0740 N   0  0  0  0  0  0  0  0  0  0  0  0
   25.9370    8.2230   -7.8820 N   0  0  0  0  0  0  0  0  0  0  0  0
   26.3370    9.4480   -8.4020 C   0  0  0  0  0  0  0  0  0  0  0  0
   27.2130    9.4910   -9.4820 C   0  0  0  0  0  0  0  0  0  0  0  0
   29.1160    9.1350  -11.7610 C   0  0  0  0  0  0  0  0  0  0  0  0
   30.4680    9.2500  -12.0630 N   0  0  0  0  0  0  0  0  0  0  0  0
   30.9400   10.3770  -12.7260 C   0  0  0  0  0  0  0  0  0  0  0  0
   30.0610   11.3910  -13.0840 C   0  0  0  0  0  0  0  0  0  0  0  0
   28.7080   11.2800  -12.7820 C   0  0  0  0  0  0  0  0  0  0  0  0
   28.2330   10.1360  -12.1450 C   0  0  0  0  0  0  0  0  0  0  0  0
   27.6130   10.7040   -9.9970 O   0  0  0  0  0  0  0  0  0  0  0  0
   27.2040   11.8460   -9.5000 C   0  0  0  0  0  0  0  0  0  0  0  0
   28.0580   12.7080   -8.8240 C   0  0  0  0  0  0  0  0  0  0  0  0
   27.5750   13.9070   -8.3130 C   0  0  0  0  0  0  0  0  0  0  0  0
   26.2370   14.2430   -8.4780 C   0  0  0  0  0  0  0  0  0  0  0  0
   25.3820   13.3800   -9.1530 C   0  0  0  0  0  0  0  0  0  0  0  0
   25.8500   12.1990   -9.6990 C   0  0  0  0  0  0  0  0  0  0  0  0
   30.5740   12.6140  -13.8030 C   0  0  1  0  0  0  0  0  0  0  0  0
   26.0875    6.0731   -8.0298 H   0  0  0  0  0  0  0  0  0  0  0  0
   28.7220    7.0210  -11.3473 H   0  0  0  0  0  0  0  0  0  0  0  0
   25.9614   10.3827   -7.9602 H   0  0  0  0  0  0  0  0  0  0  0  0
   32.0096   10.4657  -12.9671 H   0  0  0  0  0  0  0  0  0  0  0  0
   28.0153   12.0929  -13.0453 H   0  0  0  0  0  0  0  0  0  0  0  0
   27.1569   10.0251  -11.9458 H   0  0  0  0  0  0  0  0  0  0  0  0
   29.1172   12.4416   -8.6930 H   0  0  0  0  0  0  0  0  0  0  0  0
   28.2518   14.5896   -7.7782 H   0  0  0  0  0  0  0  0  0  0  0  0
   25.8544   15.1921   -8.0744 H   0  0  0  0  0  0  0  0  0  0  0  0
   24.3180   13.6401   -9.2543 H   0  0  0  0  0  0  0  0  0  0  0  0
   25.1805   11.5459  -10.2779 H   0  0  0  0  0  0  0  0  0  0  0  0
   30.8899   13.3671  -13.0660 H   0  0  0  0  0  0  0  0  0  0  0  0
   31.4313   12.3359  -14.4336 H   0  0  0  0  0  0  0  0  0  0  0  0
   29.7749   13.0308  -14.4336 H   0  0  0  0  0  0  0  0  0  0  0  0
  1  2  2  0
  1  5  1  0
  2  3  1  0
  3  4  1  0
  3  7  2  0
  5  6  2  0
  6  7  1  0
  7 14  1  0
  4  8  1  0
  8 13  1  0
  8  9  2  0
  9 10  1  0
 10 11  2  0
 11 21  1  0
 11 12  1  0
 12 13  2  0
 14 15  1  0
 15 20  1  0
 15 16  2  0
 16 17  1  0
 17 18  2  0
 18 19  1  0
 19 20  2  0
  1 22  1  0
  4 23  1  0
  6 24  1  0
 10 25  1  0
 12 26  1  0
 13 27  1  0
 16 28  1  0
 17 29  1  0
 18 30  1  0
 19 31  1  0
 20 32  1  0
 21 33  1  1
 21 34  1  0
 21 35  1  0
M  END
>  <Pose ID>  (15)
104

>  <Score>  (15)
-8.016838073730469

>  <smiles>  (15)
Cc1ccc(Nc2ncncc2Oc2ccccc2)nc1

$$$$

     RDKit          3D

 40 42  0  0  0  0  0  0  0  0999 V2000
   26.4040    7.0420   -8.4360 C   0  0  0  0  0  0  0  0  0  0  0  0
   27.2860    7.1110   -9.5060 N   0  0  0  0  0  0  0  0  0  0  0  0
   27.6040    8.3410  -10.0660 C   0  0  0  0  0  0  0  0  0  0  0  0
   28.4760    8.0550  -11.0810 N   0  0  0  0  0  0  0  0  0  0  0  0
   25.8450    8.2030   -7.9200 N   0  0  0  0  0  0  0  0  0  0  0  0
   26.1600    9.4350   -8.4780 C   0  0  0  0  0  0  0  0  0  0  0  0
   27.0430    9.5050   -9.5520 C   0  0  0  0  0  0  0  0  0  0  0  0
   28.9910    9.2140  -11.8020 C   0  0  0  0  0  0  0  0  0  0  0  0
   30.3360    9.4140  -12.0950 N   0  0  0  0  0  0  0  0  0  0  0  0
   30.7320   10.5500  -12.7920 C   0  0  0  0  0  0  0  0  0  0  0  0
   29.7870   11.4850  -13.1930 C   0  0  0  0  0  0  0  0  0  0  0  0
   28.4440   11.2860  -12.8980 C   0  0  0  0  0  0  0  0  0  0  0  0
   28.0440   10.1330  -12.2260 C   0  0  0  0  0  0  0  0  0  0  0  0
   27.3600   10.7250  -10.1030 O   0  0  0  0  0  0  0  0  0  0  0  0
   26.8570   11.8560   -9.6650 C   0  0  0  0  0  0  0  0  0  0  0  0
   27.6450   12.7870   -8.9980 C   0  0  0  0  0  0  0  0  0  0  0  0
   27.0780   13.9660   -8.5260 C   0  0  0  0  0  0  0  0  0  0  0  0
   25.7230   14.2110   -8.7220 C   0  0  0  0  0  0  0  0  0  0  0  0
   24.9360   13.2780   -9.3860 N   0  0  0  0  0  0  0  0  0  0  0  0
   25.5040   12.0990   -9.8580 C   0  0  0  0  0  0  0  0  0  0  0  0
   27.4190   12.3180  -13.3060 C   0  0  1  0  0  0  0  0  0  0  0  0
   27.7220   13.7490  -12.8760 C   0  0  1  0  0  0  0  0  0  0  0  0
   27.9320   14.9790   -7.8030 C   0  0  1  0  0  0  0  0  0  0  0  0
   26.1480    6.0665   -7.9968 H   0  0  0  0  0  0  0  0  0  0  0  0
   28.7491    7.0908  -11.3189 H   0  0  0  0  0  0  0  0  0  0  0  0
   25.7125   10.3542   -8.0720 H   0  0  0  0  0  0  0  0  0  0  0  0
   31.7951   10.7082  -13.0260 H   0  0  0  0  0  0  0  0  0  0  0  0
   30.1017   12.3834  -13.7443 H   0  0  0  0  0  0  0  0  0  0  0  0
   26.9765    9.9520  -12.0319 H   0  0  0  0  0  0  0  0  0  0  0  0
   28.7164   12.5913   -8.8436 H   0  0  0  0  0  0  0  0  0  0  0  0
   25.2740   15.1442   -8.3510 H   0  0  0  0  0  0  0  0  0  0  0  0
   24.8815   11.3600  -10.3837 H   0  0  0  0  0  0  0  0  0  0  0  0
   27.3410   12.3030  -14.4031 H   0  0  0  0  0  0  0  0  0  0  0  0
   26.4876   12.0387  -12.7917 H   0  0  0  0  0  0  0  0  0  0  0  0
   27.7343   13.8070  -11.7776 H   0  0  0  0  0  0  0  0  0  0  0  0
   28.7038   14.0502  -13.2701 H   0  0  0  0  0  0  0  0  0  0  0  0
   26.9465   14.4223  -13.2701 H   0  0  0  0  0  0  0  0  0  0  0  0
   27.8193   14.8453   -6.7170 H   0  0  0  0  0  0  0  0  0  0  0  0
   28.9862   14.8361   -8.0825 H   0  0  0  0  0  0  0  0  0  0  0  0
   27.6129   15.9939   -8.0825 H   0  0  0  0  0  0  0  0  0  0  0  0
  1  2  2  0
  1  5  1  0
  2  3  1  0
  3  4  1  0
  3  7  2  0
  5  6  2  0
  6  7  1  0
  7 14  1  0
  4  8  1  0
  8 13  1  0
  8  9  2  0
  9 10  1  0
 10 11  2  0
 11 12  1  0
 12 21  1  0
 12 13  2  0
 21 22  1  0
 14 15  1  0
 15 20  1  0
 15 16  2  0
 16 17  1  0
 17 18  2  0
 17 23  1  0
 18 19  1  0
 19 20  2  0
  1 24  1  0
  4 25  1  0
  6 26  1  0
 10 27  1  0
 11 28  1  0
 13 29  1  0
 16 30  1  0
 18 31  1  0
 20 32  1  0
 21 33  1  6
 21 34  1  0
 22 35  1  1
 22 36  1  0
 22 37  1  0
 23 38  1  1
 23 39  1  0
 23 40  1  0
M  END
>  <Pose ID>  (16)
91

>  <Score>  (16)
-7.969499111175537

>  <smiles>  (16)
CCc1ccnc(Nc2ncncc2Oc2cncc(C)c2)c1

$$$$

     RDKit          3D

 37 39  0  0  0  0  0  0  0  0999 V2000
   26.4080    7.0420   -8.4430 C   0  0  0  0  0  0  0  0  0  0  0  0
   27.2830    7.0860   -9.5190 N   0  0  0  0  0  0  0  0  0  0  0  0
   27.6850    8.3090  -10.0400 C   0  0  0  0  0  0  0  0  0  0  0  0
   28.5260    7.9970  -11.0730 N   0  0  0  0  0  0  0  0  0  0  0  0
   25.9370    8.2210   -7.8810 N   0  0  0  0  0  0  0  0  0  0  0  0
   26.3370    9.4460   -8.3990 C   0  0  0  0  0  0  0  0  0  0  0  0
   27.2140    9.4910   -9.4800 C   0  0  0  0  0  0  0  0  0  0  0  0
   29.1170    9.1400  -11.7590 C   0  0  0  0  0  0  0  0  0  0  0  0
   30.4710    9.2540  -12.0590 N   0  0  0  0  0  0  0  0  0  0  0  0
   30.9420   10.3820  -12.7210 C   0  0  0  0  0  0  0  0  0  0  0  0
   30.0630   11.3960  -13.0790 C   0  0  0  0  0  0  0  0  0  0  0  0
   28.7110   11.2850  -12.7770 C   0  0  0  0  0  0  0  0  0  0  0  0
   28.2350   10.1390  -12.1410 C   0  0  0  0  0  0  0  0  0  0  0  0
   27.6140   10.7040   -9.9920 O   0  0  0  0  0  0  0  0  0  0  0  0
   27.1980   11.8510   -9.5080 C   0  0  0  0  0  0  0  0  0  0  0  0
   28.0550   12.7000   -8.8180 C   0  0  0  0  0  0  0  0  0  0  0  0
   27.5790   13.8990   -8.3000 C   0  0  0  0  0  0  0  0  0  0  0  0
   26.2450   14.2480   -8.4720 C   0  0  0  0  0  0  0  0  0  0  0  0
   25.3860   13.3980   -9.1610 N   0  0  0  0  0  0  0  0  0  0  0  0
   25.8640   12.1990   -9.6790 C   0  0  0  0  0  0  0  0  0  0  0  0
   25.7270   15.5480   -7.9100 C   0  0  1  0  0  0  0  0  0  0  0  0
   30.5770   12.6200  -13.7950 C   0  0  1  0  0  0  0  0  0  0  0  0
   26.0872    6.0722   -8.0349 H   0  0  0  0  0  0  0  0  0  0  0  0
   28.7273    7.0246  -11.3465 H   0  0  0  0  0  0  0  0  0  0  0  0
   25.9614   10.3801   -7.9558 H   0  0  0  0  0  0  0  0  0  0  0  0
   32.0117   10.4716  -12.9615 H   0  0  0  0  0  0  0  0  0  0  0  0
   28.0186   12.0986  -13.0389 H   0  0  0  0  0  0  0  0  0  0  0  0
   27.1589   10.0276  -11.9422 H   0  0  0  0  0  0  0  0  0  0  0  0
   29.1108   12.4230   -8.6816 H   0  0  0  0  0  0  0  0  0  0  0  0
   28.2578   14.5710   -7.7544 H   0  0  0  0  0  0  0  0  0  0  0  0
   25.1857   11.5262  -10.2242 H   0  0  0  0  0  0  0  0  0  0  0  0
   25.7441   15.5050   -6.8110 H   0  0  0  0  0  0  0  0  0  0  0  0
   26.3639   16.3761   -8.2545 H   0  0  0  0  0  0  0  0  0  0  0  0
   24.6952   15.7112   -8.2545 H   0  0  0  0  0  0  0  0  0  0  0  0
   30.8926   13.3715  -13.0563 H   0  0  0  0  0  0  0  0  0  0  0  0
   31.4347   12.3429  -14.4255 H   0  0  0  0  0  0  0  0  0  0  0  0
   29.7786   13.0383  -14.4255 H   0  0  0  0  0  0  0  0  0  0  0  0
  1  2  2  0
  1  5  1  0
  2  3  1  0
  3  4  1  0
  3  7  2  0
  5  6  2  0
  6  7  1  0
  7 14  1  0
  4  8  1  0
  8 13  1  0
  8  9  2  0
  9 10  1  0
 10 11  2  0
 11 22  1  0
 11 12  1  0
 12 13  2  0
 14 15  1  0
 15 20  1  0
 15 16  2  0
 16 17  1  0
 17 18  2  0
 18 19  1  0
 18 21  1  0
 19 20  2  0
  1 23  1  0
  4 24  1  0
  6 25  1  0
 10 26  1  0
 12 27  1  0
 13 28  1  0
 16 29  1  0
 17 30  1  0
 20 31  1  0
 21 32  1  1
 21 33  1  0
 21 34  1  0
 22 35  1  1
 22 36  1  0
 22 37  1  0
M  END
>  <Pose ID>  (17)
93

>  <Score>  (17)
-7.96110200881958

>  <smiles>  (17)
Cc1ccc(Nc2ncncc2Oc2ccc(C)nc2)nc1

$$$$

     RDKit          3D

 37 39  0  0  0  0  0  0  0  0999 V2000
   26.4060    7.0420   -8.4390 C   0  0  0  0  0  0  0  0  0  0  0  0
   27.2890    7.0970   -9.5090 N   0  0  0  0  0  0  0  0  0  0  0  0
   27.6360    8.3220  -10.0630 C   0  0  0  0  0  0  0  0  0  0  0  0
   28.5020    8.0210  -11.0780 N   0  0  0  0  0  0  0  0  0  0  0  0
   25.8730    8.2130   -7.9180 N   0  0  0  0  0  0  0  0  0  0  0  0
   26.2170    9.4400   -8.4690 C   0  0  0  0  0  0  0  0  0  0  0  0
   27.1020    9.4960   -9.5430 C   0  0  0  0  0  0  0  0  0  0  0  0
   29.0440    9.1720  -11.7930 C   0  0  0  0  0  0  0  0  0  0  0  0
   30.3930    9.3430  -12.0850 N   0  0  0  0  0  0  0  0  0  0  0  0
   30.8150   10.4730  -12.7750 C   0  0  0  0  0  0  0  0  0  0  0  0
   29.8920   11.4320  -13.1720 C   0  0  0  0  0  0  0  0  0  0  0  0
   28.5440   11.2620  -12.8790 C   0  0  0  0  0  0  0  0  0  0  0  0
   28.1170   10.1140  -12.2130 C   0  0  0  0  0  0  0  0  0  0  0  0
   27.4470   10.7110  -10.0870 O   0  0  0  0  0  0  0  0  0  0  0  0
   26.9700   11.8500   -9.6420 C   0  0  0  0  0  0  0  0  0  0  0  0
   27.7780   12.7600   -8.9710 C   0  0  0  0  0  0  0  0  0  0  0  0
   27.2390   13.9490   -8.4930 C   0  0  0  0  0  0  0  0  0  0  0  0
   25.8900   14.2260   -8.6870 C   0  0  0  0  0  0  0  0  0  0  0  0
   25.0810   13.3150   -9.3580 N   0  0  0  0  0  0  0  0  0  0  0  0
   25.6230   12.1260   -9.8360 C   0  0  0  0  0  0  0  0  0  0  0  0
   27.5440   12.3190  -13.2810 C   0  0  1  0  0  0  0  0  0  0  0  0
   28.1160   14.9380   -7.7650 C   0  0  1  0  0  0  0  0  0  0  0  0
   26.1288    6.0704   -8.0041 H   0  0  0  0  0  0  0  0  0  0  0  0
   28.7534    7.0520  -11.3202 H   0  0  0  0  0  0  0  0  0  0  0  0
   25.7910   10.3670   -8.0577 H   0  0  0  0  0  0  0  0  0  0  0  0
   31.8817   10.6082  -13.0071 H   0  0  0  0  0  0  0  0  0  0  0  0
   30.2278   12.3258  -13.7182 H   0  0  0  0  0  0  0  0  0  0  0  0
   27.0456    9.9556  -12.0208 H   0  0  0  0  0  0  0  0  0  0  0  0
   28.8447   12.5394   -8.8180 H   0  0  0  0  0  0  0  0  0  0  0  0
   25.4624   15.1665   -8.3094 H   0  0  0  0  0  0  0  0  0  0  0  0
   24.9846   11.4048  -10.3674 H   0  0  0  0  0  0  0  0  0  0  0  0
   27.1113   12.7764  -12.3790 H   0  0  0  0  0  0  0  0  0  0  0  0
   28.0484   13.0927  -13.8785 H   0  0  0  0  0  0  0  0  0  0  0  0
   26.7436   11.8582  -13.8785 H   0  0  0  0  0  0  0  0  0  0  0  0
   27.9971   14.8040   -6.6797 H   0  0  0  0  0  0  0  0  0  0  0  0
   29.1671   14.7696   -8.0423 H   0  0  0  0  0  0  0  0  0  0  0  0
   27.8231   15.9614   -8.0423 H   0  0  0  0  0  0  0  0  0  0  0  0
  1  2  2  0
  1  5  1  0
  2  3  1  0
  3  4  1  0
  3  7  2  0
  5  6  2  0
  6  7  1  0
  7 14  1  0
  4  8  1  0
  8 13  1  0
  8  9  2  0
  9 10  1  0
 10 11  2  0
 11 12  1  0
 12 21  1  0
 12 13  2  0
 14 15  1  0
 15 20  1  0
 15 16  2  0
 16 17  1  0
 17 18  2  0
 17 22  1  0
 18 19  1  0
 19 20  2  0
  1 23  1  0
  4 24  1  0
  6 25  1  0
 10 26  1  0
 11 27  1  0
 13 28  1  0
 16 29  1  0
 18 30  1  0
 20 31  1  0
 21 32  1  1
 21 33  1  0
 21 34  1  0
 22 35  1  1
 22 36  1  0
 22 37  1  0
M  END
>  <Pose ID>  (18)
85

>  <Score>  (18)
-7.957381248474121

>  <smiles>  (18)
Cc1cncc(Oc2cncnc2Nc2cc(C)ccn2)c1

$$$$

     RDKit          3D

 38 40  0  0  0  0  0  0  0  0999 V2000
   26.4060    7.0420   -8.4420 C   0  0  0  0  0  0  0  0  0  0  0  0
   27.2780    7.0840   -9.5210 N   0  0  0  0  0  0  0  0  0  0  0  0
   27.6830    8.3070  -10.0400 C   0  0  0  0  0  0  0  0  0  0  0  0
   28.5210    7.9920  -11.0760 N   0  0  0  0  0  0  0  0  0  0  0  0
   25.9400    8.2230   -7.8790 N   0  0  0  0  0  0  0  0  0  0  0  0
   26.3440    9.4470   -8.3970 C   0  0  0  0  0  0  0  0  0  0  0  0
   27.2180    9.4900   -9.4790 C   0  0  0  0  0  0  0  0  0  0  0  0
   29.1160    9.1330  -11.7620 C   0  0  0  0  0  0  0  0  0  0  0  0
   30.4680    9.2440  -12.0660 N   0  0  0  0  0  0  0  0  0  0  0  0
   30.9420   10.3710  -12.7270 C   0  0  0  0  0  0  0  0  0  0  0  0
   30.0650   11.3880  -13.0820 C   0  0  0  0  0  0  0  0  0  0  0  0
   28.7130   11.2810  -12.7780 C   0  0  0  0  0  0  0  0  0  0  0  0
   28.2350   10.1370  -12.1420 C   0  0  0  0  0  0  0  0  0  0  0  0
   27.6210   10.7030   -9.9910 O   0  0  0  0  0  0  0  0  0  0  0  0
   27.2170   11.8450   -9.4920 C   0  0  0  0  0  0  0  0  0  0  0  0
   28.0750   12.7030   -8.8160 C   0  0  0  0  0  0  0  0  0  0  0  0
   27.5970   13.9020   -8.3010 C   0  0  0  0  0  0  0  0  0  0  0  0
   26.2590   14.2440   -8.4630 C   0  0  0  0  0  0  0  0  0  0  0  0
   25.4000   13.3840   -9.1380 C   0  0  0  0  0  0  0  0  0  0  0  0
   25.8630   12.2030   -9.6870 C   0  0  0  0  0  0  0  0  0  0  0  0
   25.7400   15.5460   -7.9060 C   0  0  1  0  0  0  0  0  0  0  0  0
   30.5810   12.6110  -13.7990 C   0  0  1  0  0  0  0  0  0  0  0  0
   26.0839    6.0731   -8.0327 H   0  0  0  0  0  0  0  0  0  0  0  0
   28.7171    7.0190  -11.3511 H   0  0  0  0  0  0  0  0  0  0  0  0
   25.9731   10.3821   -7.9520 H   0  0  0  0  0  0  0  0  0  0  0  0
   32.0116   10.4576  -12.9690 H   0  0  0  0  0  0  0  0  0  0  0  0
   28.0226   12.0967  -13.0386 H   0  0  0  0  0  0  0  0  0  0  0  0
   27.1590   10.0291  -11.9408 H   0  0  0  0  0  0  0  0  0  0  0  0
   29.1337   12.4332   -8.6882 H   0  0  0  0  0  0  0  0  0  0  0  0
   28.2771   14.5805   -7.7652 H   0  0  0  0  0  0  0  0  0  0  0  0
   24.3365   13.6473   -9.2366 H   0  0  0  0  0  0  0  0  0  0  0  0
   25.1900   11.5530  -10.2654 H   0  0  0  0  0  0  0  0  0  0  0  0
   25.7556   15.5067   -6.8068 H   0  0  0  0  0  0  0  0  0  0  0  0
   26.3772   16.3730   -8.2525 H   0  0  0  0  0  0  0  0  0  0  0  0
   24.7086   15.7078   -8.2525 H   0  0  0  0  0  0  0  0  0  0  0  0
   30.8980   13.3624  -13.0608 H   0  0  0  0  0  0  0  0  0  0  0  0
   31.4381   12.3320  -14.4295 H   0  0  0  0  0  0  0  0  0  0  0  0
   29.7831   13.0303  -14.4295 H   0  0  0  0  0  0  0  0  0  0  0  0
  1  2  2  0
  1  5  1  0
  2  3  1  0
  3  4  1  0
  3  7  2  0
  5  6  2  0
  6  7  1  0
  7 14  1  0
  4  8  1  0
  8 13  1  0
  8  9  2  0
  9 10  1  0
 10 11  2  0
 11 22  1  0
 11 12  1  0
 12 13  2  0
 14 15  1  0
 15 20  1  0
 15 16  2  0
 16 17  1  0
 17 18  2  0
 18 19  1  0
 18 21  1  0
 19 20  2  0
  1 23  1  0
  4 24  1  0
  6 25  1  0
 10 26  1  0
 12 27  1  0
 13 28  1  0
 16 29  1  0
 17 30  1  0
 19 31  1  0
 20 32  1  0
 21 33  1  1
 21 34  1  0
 21 35  1  0
 22 36  1  1
 22 37  1  0
 22 38  1  0
M  END
>  <Pose ID>  (19)
116

>  <Score>  (19)
-7.956808567047119

>  <smiles>  (19)
Cc1ccc(Oc2cncnc2Nc2ccc(C)cn2)cc1

$$$$

     RDKit          3D

 34 36  0  0  0  0  0  0  0  0999 V2000
   27.7720    8.3480  -10.2810 C   0  0  0  0  0  0  0  0  0  0  0  0
   27.4370    7.1150   -9.7350 N   0  0  0  0  0  0  0  0  0  0  0  0
   26.5520    7.0450   -8.6680 C   0  0  0  0  0  0  0  0  0  0  0  0
   26.0080    8.2100   -8.1390 C   0  0  0  0  0  0  0  0  0  0  0  0
   26.3470    9.4420   -8.6790 C   0  0  0  0  0  0  0  0  0  0  0  0
   27.2020    9.5260   -9.7340 C   0  0  0  0  0  0  0  0  0  0  0  0
   28.6620    8.1720  -11.3150 N   0  0  0  0  0  0  0  0  0  0  0  0
   29.0950    9.4600  -12.0350 C   0  0  0  0  0  0  0  0  0  0  0  0
   30.4580    9.6280  -12.2380 N   0  0  0  0  0  0  0  0  0  0  0  0
   30.9330   10.7620  -12.8880 C   0  0  0  0  0  0  0  0  0  0  0  0
   30.0420   11.7270  -13.3380 N   0  0  0  0  0  0  0  0  0  0  0  0
   28.6740   11.5590  -13.1390 C   0  0  0  0  0  0  0  0  0  0  0  0
   28.2010   10.4280  -12.4870 C   0  0  0  0  0  0  0  0  0  0  0  0
   27.8760   12.4230  -13.5430 O   0  0  0  0  0  0  0  0  0  0  0  0
   27.3550   10.8770  -10.0960 C   0  0  0  0  0  0  0  0  0  0  0  0
   26.3930   11.5720  -10.7300 N   0  0  0  0  0  0  0  0  0  0  0  0
   26.8250   12.9210  -10.9510 C   0  0  0  0  0  0  0  0  0  0  0  0
   28.0870   13.0540  -10.4310 O   0  0  0  0  0  0  0  0  0  0  0  0
   28.4070   11.8020   -9.9010 C   0  0  0  0  0  0  0  0  0  0  0  0
   25.7620   10.7010   -8.0900 C   0  0  1  0  0  0  0  0  0  0  0  0
   26.0450   10.8250   -6.5640 C   0  0  1  0  0  0  0  0  0  0  0  0
   26.2811    6.0681   -8.2411 H   0  0  0  0  0  0  0  0  0  0  0  0
   25.3085    8.1548   -7.2919 H   0  0  0  0  0  0  0  0  0  0  0  0
   29.0136    7.2431  -11.5877 H   0  0  0  0  0  0  0  0  0  0  0  0
   32.0136   10.8943  -13.0454 H   0  0  0  0  0  0  0  0  0  0  0  0
   30.3929   12.5674  -13.8192 H   0  0  0  0  0  0  0  0  0  0  0  0
   27.1206   10.2964  -12.3274 H   0  0  0  0  0  0  0  0  0  0  0  0
   26.2454   13.7114  -11.4504 H   0  0  0  0  0  0  0  0  0  0  0  0
   29.3556   11.5657   -9.3966 H   0  0  0  0  0  0  0  0  0  0  0  0
   26.2013   11.5692   -8.6031 H   0  0  0  0  0  0  0  0  0  0  0  0
   24.6714   10.6627   -8.2285 H   0  0  0  0  0  0  0  0  0  0  0  0
   25.1806   10.4463   -5.9988 H   0  0  0  0  0  0  0  0  0  0  0  0
   26.9376   10.2355   -6.3075 H   0  0  0  0  0  0  0  0  0  0  0  0
   26.2167   11.8808   -6.3075 H   0  0  0  0  0  0  0  0  0  0  0  0
  1  7  1  0
  1  2  2  0
  1  6  1  0
  2  3  1  0
  3  4  2  0
  4  5  1  0
  5  6  2  0
  5 20  1  0
  6 15  1  0
  7  8  1  0
  8 13  2  0
  8  9  1  0
  9 10  2  0
 10 11  1  0
 11 12  1  0
 12 14  2  0
 12 13  1  0
 15 16  1  0
 15 19  2  0
 16 17  2  0
 17 18  1  0
 18 19  1  0
 20 21  1  0
  3 22  1  0
  4 23  1  0
  7 24  1  0
 10 25  1  0
 11 26  1  0
 13 27  1  0
 17 28  1  0
 19 29  1  0
 20 30  1  6
 20 31  1  0
 21 32  1  1
 21 33  1  0
 21 34  1  0
M  END
>  <Pose ID>  (20)
59

>  <Score>  (20)
-7.905371189117432

>  <smiles>  (20)
CCc1ccnc(Nc2cc(=O)[nH]cn2)c1-c1cocn1

$$$$

     RDKit          3D

 40 42  0  0  0  0  0  0  0  0999 V2000
   26.4050    7.0420   -8.4380 C   0  0  0  0  0  0  0  0  0  0  0  0
   27.2890    7.0950   -9.5070 N   0  0  0  0  0  0  0  0  0  0  0  0
   27.6320    8.3190  -10.0660 C   0  0  0  0  0  0  0  0  0  0  0  0
   28.5010    8.0170  -11.0790 N   0  0  0  0  0  0  0  0  0  0  0  0
   25.8660    8.2140   -7.9230 N   0  0  0  0  0  0  0  0  0  0  0  0
   26.2070    9.4390   -8.4800 C   0  0  0  0  0  0  0  0  0  0  0  0
   27.0930    9.4940   -9.5520 C   0  0  0  0  0  0  0  0  0  0  0  0
   29.0390    9.1660  -11.7980 C   0  0  0  0  0  0  0  0  0  0  0  0
   30.3890    9.3410  -12.0890 N   0  0  0  0  0  0  0  0  0  0  0  0
   30.8080   10.4690  -12.7850 C   0  0  0  0  0  0  0  0  0  0  0  0
   29.8810   11.4230  -13.1870 C   0  0  0  0  0  0  0  0  0  0  0  0
   28.5340   11.2490  -12.8950 C   0  0  0  0  0  0  0  0  0  0  0  0
   28.1110   10.1030  -12.2240 C   0  0  0  0  0  0  0  0  0  0  0  0
   27.4350   10.7070  -10.1020 O   0  0  0  0  0  0  0  0  0  0  0  0
   26.9530   11.8460   -9.6630 C   0  0  0  0  0  0  0  0  0  0  0  0
   27.7560   12.7630   -8.9950 C   0  0  0  0  0  0  0  0  0  0  0  0
   27.2120   13.9520   -8.5240 C   0  0  0  0  0  0  0  0  0  0  0  0
   25.8630   14.2230   -8.7220 C   0  0  0  0  0  0  0  0  0  0  0  0
   25.0580   13.3060   -9.3890 N   0  0  0  0  0  0  0  0  0  0  0  0
   25.6060   12.1170   -9.8600 C   0  0  0  0  0  0  0  0  0  0  0  0
   27.5310   12.3000  -13.3030 C   0  0  1  0  0  0  0  0  0  0  0  0
   25.2710   15.5140   -8.2110 C   0  0  1  0  0  0  0  0  0  0  0  0
   28.0850   14.9460   -7.7990 C   0  0  1  0  0  0  0  0  0  0  0  0
   26.1312    6.0714   -7.9986 H   0  0  0  0  0  0  0  0  0  0  0  0
   28.7567    7.0479  -11.3165 H   0  0  0  0  0  0  0  0  0  0  0  0
   25.7769   10.3664   -8.0740 H   0  0  0  0  0  0  0  0  0  0  0  0
   31.8743   10.6065  -13.0177 H   0  0  0  0  0  0  0  0  0  0  0  0
   30.2138   12.3160  -13.7364 H   0  0  0  0  0  0  0  0  0  0  0  0
   27.0398    9.9421  -12.0324 H   0  0  0  0  0  0  0  0  0  0  0  0
   28.8233   12.5474   -8.8390 H   0  0  0  0  0  0  0  0  0  0  0  0
   24.9711   11.3910  -10.3890 H   0  0  0  0  0  0  0  0  0  0  0  0
   27.0937   12.7582  -12.4037 H   0  0  0  0  0  0  0  0  0  0  0  0
   28.0338   13.0740  -13.9014 H   0  0  0  0  0  0  0  0  0  0  0  0
   26.7343   11.8339  -13.9014 H   0  0  0  0  0  0  0  0  0  0  0  0
   25.2735   15.5085   -7.1110 H   0  0  0  0  0  0  0  0  0  0  0  0
   25.8704   16.3616   -8.5748 H   0  0  0  0  0  0  0  0  0  0  0  0
   24.2376   15.6128   -8.5748 H   0  0  0  0  0  0  0  0  0  0  0  0
   27.9683   14.8131   -6.7133 H   0  0  0  0  0  0  0  0  0  0  0  0
   29.1365   14.7822   -8.0775 H   0  0  0  0  0  0  0  0  0  0  0  0
   27.7868   15.9675   -8.0775 H   0  0  0  0  0  0  0  0  0  0  0  0
  1  2  2  0
  1  5  1  0
  2  3  1  0
  3  4  1  0
  3  7  2  0
  5  6  2  0
  6  7  1  0
  7 14  1  0
  4  8  1  0
  8 13  1  0
  8  9  2  0
  9 10  1  0
 10 11  2  0
 11 12  1  0
 12 21  1  0
 12 13  2  0
 14 15  1  0
 15 20  1  0
 15 16  2  0
 16 17  1  0
 17 18  2  0
 17 23  1  0
 18 19  1  0
 18 22  1  0
 19 20  2  0
  1 24  1  0
  4 25  1  0
  6 26  1  0
 10 27  1  0
 11 28  1  0
 13 29  1  0
 16 30  1  0
 20 31  1  0
 21 32  1  1
 21 33  1  0
 21 34  1  0
 22 35  1  1
 22 36  1  0
 22 37  1  0
 23 38  1  1
 23 39  1  0
 23 40  1  0
M  END
>  <Pose ID>  (21)
88

>  <Score>  (21)
-7.897023677825928

>  <smiles>  (21)
Cc1ccnc(Nc2ncncc2Oc2cnc(C)c(C)c2)c1

$$$$

     RDKit          3D

 34 36  0  0  0  0  0  0  0  0999 V2000
   27.8260   14.2040  -10.8050 C   0  0  0  0  0  0  0  0  0  0  0  0
   28.1640   13.4340  -11.8190 N   0  0  0  0  0  0  0  0  0  0  0  0
   27.7420   12.1100  -11.7780 C   0  0  0  0  0  0  0  0  0  0  0  0
   28.0450   11.2910  -12.7900 O   0  0  0  0  0  0  0  0  0  0  0  0
   27.0780   13.7790   -9.7120 C   0  0  0  0  0  0  0  0  0  0  0  0
   26.6710   12.5130   -9.6600 C   0  0  0  0  0  0  0  0  0  0  0  0
   26.9980   11.6490  -10.7000 C   0  0  0  0  0  0  0  0  0  0  0  0
   26.7730   14.6690   -8.6910 C   0  0  0  0  0  0  0  0  0  0  0  0
   27.2150   15.9820   -8.7580 C   0  0  0  0  0  0  0  0  0  0  0  0
   27.9650   16.4080   -9.8480 C   0  0  0  0  0  0  0  0  0  0  0  0
   28.3090   15.5330  -10.8600 C   0  0  0  0  0  0  0  0  0  0  0  0
   29.0590   10.3620  -12.4050 C   0  0  1  0  0  0  0  0  0  0  0  0
   26.5840   10.3380  -10.6600 N   0  0  0  0  0  0  0  0  0  0  0  0
   26.7130    9.2590   -9.7030 C   0  0  0  0  0  0  0  0  0  0  0  0
   27.1950    9.7780   -8.5080 N   0  0  0  0  0  0  0  0  0  0  0  0
   27.4250    8.9350   -7.4260 C   0  0  0  0  0  0  0  0  0  0  0  0
   27.1740    7.5730   -7.5420 C   0  0  0  0  0  0  0  0  0  0  0  0
   26.6910    7.0550   -8.7380 N   0  0  0  0  0  0  0  0  0  0  0  0
   26.4610    7.8980   -9.8180 C   0  0  0  0  0  0  0  0  0  0  0  0
   30.4930   10.8010  -12.7290 C   0  0  1  0  0  0  0  0  0  0  0  0
   26.0820   12.1535   -8.8034 H   0  0  0  0  0  0  0  0  0  0  0  0
   26.1800   14.3324   -7.8278 H   0  0  0  0  0  0  0  0  0  0  0  0
   26.9720   16.6861   -7.9486 H   0  0  0  0  0  0  0  0  0  0  0  0
   28.2894   17.4575   -9.9056 H   0  0  0  0  0  0  0  0  0  0  0  0
   28.9466   15.8632  -11.6933 H   0  0  0  0  0  0  0  0  0  0  0  0
   28.9861   10.2073  -11.3184 H   0  0  0  0  0  0  0  0  0  0  0  0
   28.8770    9.4470  -12.9879 H   0  0  0  0  0  0  0  0  0  0  0  0
   26.0630   10.0602  -11.5039 H   0  0  0  0  0  0  0  0  0  0  0  0
   27.8053    9.3459   -6.4792 H   0  0  0  0  0  0  0  0  0  0  0  0
   27.3575    6.9051   -6.6875 H   0  0  0  0  0  0  0  0  0  0  0  0
   26.0792    7.4875  -10.7644 H   0  0  0  0  0  0  0  0  0  0  0  0
   31.0451   10.9700  -11.7927 H   0  0  0  0  0  0  0  0  0  0  0  0
   30.9939   10.0151  -13.3133 H   0  0  0  0  0  0  0  0  0  0  0  0
   30.4681   11.7327  -13.3133 H   0  0  0  0  0  0  0  0  0  0  0  0
  1  2  2  0
  1 11  1  0
  1  5  1  0
  2  3  1  0
  3  4  1  0
  3  7  2  0
  5  6  2  0
  5  8  1  0
  6  7  1  0
  7 13  1  0
  8  9  2  0
  9 10  1  0
 10 11  2  0
 13 14  1  0
 14 19  1  0
 14 15  2  0
 15 16  1  0
 16 17  2  0
 17 18  1  0
 18 19  2  0
  4 12  1  0
 12 20  1  0
  6 21  1  0
  8 22  1  0
  9 23  1  0
 10 24  1  0
 11 25  1  0
 12 26  1  1
 12 27  1  0
 13 28  1  0
 16 29  1  0
 17 30  1  0
 19 31  1  0
 20 32  1  1
 20 33  1  0
 20 34  1  0
M  END
>  <Pose ID>  (22)
150

>  <Score>  (22)
-7.889770984649658

>  <smiles>  (22)
CCOc1nc2ccccc2cc1Nc1cnccn1

$$$$

     RDKit          3D

 40 42  0  0  0  0  0  0  0  0999 V2000
   26.4130    7.0420   -8.4420 C   0  0  0  0  0  0  0  0  0  0  0  0
   27.2840    7.0650   -9.5230 N   0  0  0  0  0  0  0  0  0  0  0  0
   27.6920    8.2780  -10.0610 C   0  0  0  0  0  0  0  0  0  0  0  0
   28.5280    7.9450  -11.0930 N   0  0  0  0  0  0  0  0  0  0  0  0
   25.9510    8.2330   -7.8980 N   0  0  0  0  0  0  0  0  0  0  0  0
   26.3580    9.4480   -8.4350 C   0  0  0  0  0  0  0  0  0  0  0  0
   27.2310    9.4710   -9.5180 C   0  0  0  0  0  0  0  0  0  0  0  0
   29.1260    9.0730  -11.7970 C   0  0  0  0  0  0  0  0  0  0  0  0
   30.4780    9.1750  -12.1040 N   0  0  0  0  0  0  0  0  0  0  0  0
   30.9550   10.2900  -12.7830 C   0  0  0  0  0  0  0  0  0  0  0  0
   30.0810   11.3040  -13.1530 C   0  0  0  0  0  0  0  0  0  0  0  0
   28.7290   11.2060  -12.8460 C   0  0  0  0  0  0  0  0  0  0  0  0
   28.2480   10.0740  -12.1920 C   0  0  0  0  0  0  0  0  0  0  0  0
   27.6370   10.6750  -10.0500 O   0  0  0  0  0  0  0  0  0  0  0  0
   27.2370   11.8260   -9.5680 C   0  0  0  0  0  0  0  0  0  0  0  0
   28.0980   12.6920   -8.9060 C   0  0  0  0  0  0  0  0  0  0  0  0
   27.6240   13.9000   -8.4100 C   0  0  0  0  0  0  0  0  0  0  0  0
   26.2870   14.2430   -8.5760 C   0  0  0  0  0  0  0  0  0  0  0  0
   25.4250   13.3760   -9.2370 C   0  0  0  0  0  0  0  0  0  0  0  0
   25.8840   12.1850   -9.7680 C   0  0  0  0  0  0  0  0  0  0  0  0
   25.8200   15.4330   -8.0890 N   0  0  0  0  0  0  0  0  0  0  0  0
   25.8510   16.6350   -8.9330 C   0  0  1  0  0  0  0  0  0  0  0  0
   25.3220   15.5310   -6.7020 C   0  0  1  0  0  0  0  0  0  0  0  0
   26.0891    6.0806   -8.0167 H   0  0  0  0  0  0  0  0  0  0  0  0
   28.7207    6.9673  -11.3534 H   0  0  0  0  0  0  0  0  0  0  0  0
   25.9903   10.3910   -8.0042 H   0  0  0  0  0  0  0  0  0  0  0  0
   32.0246   10.3693  -13.0273 H   0  0  0  0  0  0  0  0  0  0  0  0
   30.4595   12.1863  -13.6900 H   0  0  0  0  0  0  0  0  0  0  0  0
   28.0409   12.0198  -13.1186 H   0  0  0  0  0  0  0  0  0  0  0  0
   27.1718    9.9728  -11.9882 H   0  0  0  0  0  0  0  0  0  0  0  0
   29.1560   12.4211   -8.7744 H   0  0  0  0  0  0  0  0  0  0  0  0
   28.3066   14.5851   -7.8859 H   0  0  0  0  0  0  0  0  0  0  0  0
   24.3624   13.6413   -9.3391 H   0  0  0  0  0  0  0  0  0  0  0  0
   25.2087   11.5283  -10.3360 H   0  0  0  0  0  0  0  0  0  0  0  0
   25.8741   17.5306   -8.2948 H   0  0  0  0  0  0  0  0  0  0  0  0
   26.7489   16.6140   -9.5681 H   0  0  0  0  0  0  0  0  0  0  0  0
   24.9532   16.6604   -9.5681 H   0  0  0  0  0  0  0  0  0  0  0  0
   26.1540   15.3673   -6.0013 H   0  0  0  0  0  0  0  0  0  0  0  0
   24.8940   16.5306   -6.5359 H   0  0  0  0  0  0  0  0  0  0  0  0
   24.5471   14.7681   -6.5359 H   0  0  0  0  0  0  0  0  0  0  0  0
  1  2  2  0
  1  5  1  0
  2  3  1  0
  3  4  1  0
  3  7  2  0
  5  6  2  0
  6  7  1  0
  7 14  1  0
  4  8  1  0
  8 13  1  0
  8  9  2  0
  9 10  1  0
 10 11  2  0
 11 12  1  0
 12 13  2  0
 14 15  1  0
 15 20  1  0
 15 16  2  0
 16 17  1  0
 17 18  2  0
 18 19  1  0
 18 21  1  0
 19 20  2  0
 21 22  1  0
 21 23  1  0
  1 24  1  0
  4 25  1  0
  6 26  1  0
 10 27  1  0
 11 28  1  0
 12 29  1  0
 13 30  1  0
 16 31  1  0
 17 32  1  0
 19 33  1  0
 20 34  1  0
 22 35  1  1
 22 36  1  0
 22 37  1  0
 23 38  1  1
 23 39  1  0
 23 40  1  0
M  END
>  <Pose ID>  (23)
114

>  <Score>  (23)
-7.8861470222473145

>  <smiles>  (23)
CN(C)c1ccc(Oc2cncnc2Nc2ccccn2)cc1

$$$$

     RDKit          3D

 37 39  0  0  0  0  0  0  0  0999 V2000
   27.7770    8.3480  -10.2720 C   0  0  0  0  0  0  0  0  0  0  0  0
   27.4360    7.1150   -9.7310 N   0  0  0  0  0  0  0  0  0  0  0  0
   26.5960    7.0490   -8.6280 C   0  0  0  0  0  0  0  0  0  0  0  0
   26.1030    8.2180   -8.0590 C   0  0  0  0  0  0  0  0  0  0  0  0
   26.4480    9.4500   -8.5950 C   0  0  0  0  0  0  0  0  0  0  0  0
   27.2590    9.5310   -9.6840 C   0  0  0  0  0  0  0  0  0  0  0  0
   28.6180    8.1680  -11.3460 N   0  0  0  0  0  0  0  0  0  0  0  0
   29.0510    9.4570  -12.0640 C   0  0  0  0  0  0  0  0  0  0  0  0
   30.4080    9.5960  -12.3230 N   0  0  0  0  0  0  0  0  0  0  0  0
   30.8820   10.7290  -12.9760 C   0  0  0  0  0  0  0  0  0  0  0  0
   29.9960   11.7220  -13.3730 N   0  0  0  0  0  0  0  0  0  0  0  0
   28.6340   11.5820  -13.1180 C   0  0  0  0  0  0  0  0  0  0  0  0
   28.1620   10.4530  -12.4630 C   0  0  0  0  0  0  0  0  0  0  0  0
   27.8410   12.4710  -13.4750 O   0  0  0  0  0  0  0  0  0  0  0  0
   27.4290   10.8830  -10.0320 C   0  0  0  0  0  0  0  0  0  0  0  0
   26.4580   11.6100  -10.6140 N   0  0  0  0  0  0  0  0  0  0  0  0
   26.9130   12.9520  -10.8330 C   0  0  0  0  0  0  0  0  0  0  0  0
   28.1990   13.0480  -10.3660 O   0  0  0  0  0  0  0  0  0  0  0  0
   28.5110   11.7800   -9.8680 C   0  0  0  0  0  0  0  0  0  0  0  0
   25.9190   10.7130   -7.9630 C   0  0  1  0  0  0  0  0  0  0  0  0
   26.2690   10.8060   -6.4480 C   0  0  1  0  0  0  0  0  0  0  0  0
   25.7760   12.0320   -5.8010 C   0  0  1  0  0  0  0  0  0  0  0  0
   26.3204    6.0721   -8.2041 H   0  0  0  0  0  0  0  0  0  0  0  0
   25.4391    8.1658   -7.1835 H   0  0  0  0  0  0  0  0  0  0  0  0
   28.9351    7.2357  -11.6477 H   0  0  0  0  0  0  0  0  0  0  0  0
   31.9578   10.8384  -13.1778 H   0  0  0  0  0  0  0  0  0  0  0  0
   30.3461   12.5618  -13.8559 H   0  0  0  0  0  0  0  0  0  0  0  0
   27.0865   10.3446  -12.2590 H   0  0  0  0  0  0  0  0  0  0  0  0
   26.3317   13.7635  -11.2952 H   0  0  0  0  0  0  0  0  0  0  0  0
   29.4739   11.5135   -9.4077 H   0  0  0  0  0  0  0  0  0  0  0  0
   26.3573   11.5786   -8.4813 H   0  0  0  0  0  0  0  0  0  0  0  0
   24.8230   10.7027   -8.0557 H   0  0  0  0  0  0  0  0  0  0  0  0
   25.8249    9.9401   -5.9352 H   0  0  0  0  0  0  0  0  0  0  0  0
   27.3663   10.8215   -6.3720 H   0  0  0  0  0  0  0  0  0  0  0  0
   25.8233   11.9144   -4.7083 H   0  0  0  0  0  0  0  0  0  0  0  0
   26.4014   12.8842   -6.1055 H   0  0  0  0  0  0  0  0  0  0  0  0
   24.7348   12.2140   -6.1055 H   0  0  0  0  0  0  0  0  0  0  0  0
  1  7  1  0
  1  2  2  0
  1  6  1  0
  2  3  1  0
  3  4  2  0
  4  5  1  0
  5  6  2  0
  5 20  1  0
  6 15  1  0
  7  8  1  0
  8 13  2  0
  8  9  1  0
  9 10  2  0
 10 11  1  0
 11 12  1  0
 12 14  2  0
 12 13  1  0
 15 16  1  0
 15 19  2  0
 16 17  2  0
 17 18  1  0
 18 19  1  0
 20 21  1  0
 21 22  1  0
  3 23  1  0
  4 24  1  0
  7 25  1  0
 10 26  1  0
 11 27  1  0
 13 28  1  0
 17 29  1  0
 19 30  1  0
 20 31  1  6
 20 32  1  0
 21 33  1  1
 21 34  1  0
 22 35  1  1
 22 36  1  0
 22 37  1  0
M  END
>  <Pose ID>  (24)
61

>  <Score>  (24)
-7.885545253753662

>  <smiles>  (24)
CCCc1ccnc(Nc2cc(=O)[nH]cn2)c1-c1cocn1

$$$$

     RDKit          3D

 37 39  0  0  0  0  0  0  0  0999 V2000
   26.4100    7.0420   -8.4420 C   0  0  0  0  0  0  0  0  0  0  0  0
   27.2830    7.0740   -9.5210 N   0  0  0  0  0  0  0  0  0  0  0  0
   27.6760    8.2900  -10.0640 C   0  0  0  0  0  0  0  0  0  0  0  0
   28.5170    7.9670  -11.0930 N   0  0  0  0  0  0  0  0  0  0  0  0
   25.9330    8.2270   -7.9000 N   0  0  0  0  0  0  0  0  0  0  0  0
   26.3240    9.4460   -8.4390 C   0  0  0  0  0  0  0  0  0  0  0  0
   27.1970    9.4790   -9.5220 C   0  0  0  0  0  0  0  0  0  0  0  0
   29.0990    9.1020  -11.7990 C   0  0  0  0  0  0  0  0  0  0  0  0
   30.4500    9.2210  -12.1050 N   0  0  0  0  0  0  0  0  0  0  0  0
   30.9120   10.3410  -12.7860 C   0  0  0  0  0  0  0  0  0  0  0  0
   30.0260   11.3420  -13.1590 C   0  0  0  0  0  0  0  0  0  0  0  0
   28.6750   11.2270  -12.8530 C   0  0  0  0  0  0  0  0  0  0  0  0
   28.2080   10.0890  -12.1960 C   0  0  0  0  0  0  0  0  0  0  0  0
   27.5880   10.6860  -10.0560 O   0  0  0  0  0  0  0  0  0  0  0  0
   27.1650   11.8380   -9.5900 C   0  0  0  0  0  0  0  0  0  0  0  0
   28.0170   12.7040   -8.9170 C   0  0  0  0  0  0  0  0  0  0  0  0
   27.5340   13.9080   -8.4190 C   0  0  0  0  0  0  0  0  0  0  0  0
   26.1970   14.2450   -8.5930 C   0  0  0  0  0  0  0  0  0  0  0  0
   25.3430   13.3780   -9.2660 N   0  0  0  0  0  0  0  0  0  0  0  0
   25.8280   12.1730   -9.7650 C   0  0  0  0  0  0  0  0  0  0  0  0
   25.6710   15.5510   -8.0520 C   0  0  1  0  0  0  0  0  0  0  0  0
   25.5190   16.4870   -9.2310 C   0  0  1  0  0  0  0  0  0  0  0  0
   26.0964    6.0772   -8.0167 H   0  0  0  0  0  0  0  0  0  0  0  0
   28.7244    6.9916  -11.3507 H   0  0  0  0  0  0  0  0  0  0  0  0
   25.9437   10.3848   -8.0099 H   0  0  0  0  0  0  0  0  0  0  0  0
   31.9807   10.4341  -13.0295 H   0  0  0  0  0  0  0  0  0  0  0  0
   30.3935   12.2279  -13.6977 H   0  0  0  0  0  0  0  0  0  0  0  0
   27.9765   12.0310  -13.1282 H   0  0  0  0  0  0  0  0  0  0  0  0
   27.1332    9.9737  -11.9924 H   0  0  0  0  0  0  0  0  0  0  0  0
   29.0749   12.4366   -8.7781 H   0  0  0  0  0  0  0  0  0  0  0  0
   28.2096   14.5941   -7.8873 H   0  0  0  0  0  0  0  0  0  0  0  0
   25.1535   11.4863  -10.2975 H   0  0  0  0  0  0  0  0  0  0  0  0
   24.6968   15.3939   -7.5659 H   0  0  0  0  0  0  0  0  0  0  0  0
   26.3576   15.9711   -7.3023 H   0  0  0  0  0  0  0  0  0  0  0  0
   25.3526   17.5115   -8.8667 H   0  0  0  0  0  0  0  0  0  0  0  0
   26.4335   16.4590   -9.8417 H   0  0  0  0  0  0  0  0  0  0  0  0
   24.6604   16.1710   -9.8417 H   0  0  0  0  0  0  0  0  0  0  0  0
  1  2  2  0
  1  5  1  0
  2  3  1  0
  3  4  1  0
  3  7  2  0
  5  6  2  0
  6  7  1  0
  7 14  1  0
  4  8  1  0
  8 13  1  0
  8  9  2  0
  9 10  1  0
 10 11  2  0
 11 12  1  0
 12 13  2  0
 14 15  1  0
 15 20  1  0
 15 16  2  0
 16 17  1  0
 17 18  2  0
 18 19  1  0
 18 21  1  0
 19 20  2  0
 21 22  1  0
  1 23  1  0
  4 24  1  0
  6 25  1  0
 10 26  1  0
 11 27  1  0
 12 28  1  0
 13 29  1  0
 16 30  1  0
 17 31  1  0
 20 32  1  0
 21 33  1  1
 21 34  1  0
 22 35  1  1
 22 36  1  0
 22 37  1  0
M  END
>  <Pose ID>  (25)
92

>  <Score>  (25)
-7.87122917175293

>  <smiles>  (25)
CCc1ccc(Oc2cncnc2Nc2ccccn2)cn1

$$$$

     RDKit          3D

 37 39  0  0  0  0  0  0  0  0999 V2000
   27.7720    8.3480  -10.2790 C   0  0  0  0  0  0  0  0  0  0  0  0
   27.4360    7.1140   -9.7370 N   0  0  0  0  0  0  0  0  0  0  0  0
   26.5520    7.0420   -8.6690 C   0  0  0  0  0  0  0  0  0  0  0  0
   26.0100    8.2060   -8.1360 C   0  0  0  0  0  0  0  0  0  0  0  0
   26.3500    9.4390   -8.6730 C   0  0  0  0  0  0  0  0  0  0  0  0
   27.2040    9.5250   -9.7280 C   0  0  0  0  0  0  0  0  0  0  0  0
   28.6610    8.1740  -11.3150 N   0  0  0  0  0  0  0  0  0  0  0  0
   29.0950    9.4640  -12.0310 C   0  0  0  0  0  0  0  0  0  0  0  0
   30.4580    9.6310  -12.2350 N   0  0  0  0  0  0  0  0  0  0  0  0
   30.9340   10.7660  -12.8810 C   0  0  0  0  0  0  0  0  0  0  0  0
   30.0440   11.7340  -13.3280 N   0  0  0  0  0  0  0  0  0  0  0  0
   28.6760   11.5670  -13.1280 C   0  0  0  0  0  0  0  0  0  0  0  0
   28.2020   10.4340  -12.4790 C   0  0  0  0  0  0  0  0  0  0  0  0
   27.8790   12.4330  -13.5290 O   0  0  0  0  0  0  0  0  0  0  0  0
   27.3590   10.8770  -10.0860 C   0  0  0  0  0  0  0  0  0  0  0  0
   26.3970   11.5750  -10.7170 N   0  0  0  0  0  0  0  0  0  0  0  0
   26.8310   12.9240  -10.9340 C   0  0  0  0  0  0  0  0  0  0  0  0
   28.0940   13.0540  -10.4150 O   0  0  0  0  0  0  0  0  0  0  0  0
   28.4120   11.8000   -9.8890 C   0  0  0  0  0  0  0  0  0  0  0  0
   25.7670   10.6970   -8.0790 C   0  0  2  0  0  0  0  0  0  0  0  0
   26.0520   10.8160   -6.5530 C   0  0  1  0  0  0  0  0  0  0  0  0
   24.3390   10.9140   -8.6350 C   0  0  1  0  0  0  0  0  0  0  0  0
   26.2805    6.0642   -8.2446 H   0  0  0  0  0  0  0  0  0  0  0  0
   25.3114    8.1492   -7.2882 H   0  0  0  0  0  0  0  0  0  0  0  0
   29.0109    7.2455  -11.5913 H   0  0  0  0  0  0  0  0  0  0  0  0
   32.0148   10.8974  -13.0381 H   0  0  0  0  0  0  0  0  0  0  0  0
   30.3957   12.5751  -13.8073 H   0  0  0  0  0  0  0  0  0  0  0  0
   27.1216   10.3031  -12.3190 H   0  0  0  0  0  0  0  0  0  0  0  0
   26.2520   13.7167  -11.4303 H   0  0  0  0  0  0  0  0  0  0  0  0
   29.3604   11.5608   -9.3857 H   0  0  0  0  0  0  0  0  0  0  0  0
   26.2873   11.6066   -8.4136 H   0  0  0  0  0  0  0  0  0  0  0  0
   25.1811   10.4524   -5.9879 H   0  0  0  0  0  0  0  0  0  0  0  0
   26.9342   10.2111   -6.2965 H   0  0  0  0  0  0  0  0  0  0  0  0
   26.2421   11.8687   -6.2965 H   0  0  0  0  0  0  0  0  0  0  0  0
   23.6324   11.0214   -7.7989 H   0  0  0  0  0  0  0  0  0  0  0  0
   24.3198   11.8254   -9.2507 H   0  0  0  0  0  0  0  0  0  0  0  0
   24.0499   10.0495   -9.2507 H   0  0  0  0  0  0  0  0  0  0  0  0
  1  7  1  0
  1  2  2  0
  1  6  1  0
  2  3  1  0
  3  4  2  0
  4  5  1  0
  5  6  2  0
  5 20  1  0
  6 15  1  0
  7  8  1  0
  8 13  2  0
  8  9  1  0
  9 10  2  0
 10 11  1  0
 11 12  1  0
 12 14  2  0
 12 13  1  0
 15 16  1  0
 15 19  2  0
 16 17  2  0
 17 18  1  0
 18 19  1  0
 20 22  1  0
 20 21  1  0
  3 23  1  0
  4 24  1  0
  7 25  1  0
 10 26  1  0
 11 27  1  0
 13 28  1  0
 17 29  1  0
 19 30  1  0
 20 31  1  6
 21 32  1  1
 21 33  1  0
 21 34  1  0
 22 35  1  1
 22 36  1  0
 22 37  1  0
M  END
>  <Pose ID>  (26)
60

>  <Score>  (26)
-7.8422160148620605

>  <smiles>  (26)
CC(C)c1ccnc(Nc2cc(=O)[nH]cn2)c1-c1cocn1

$$$$

     RDKit          3D

 34 36  0  0  0  0  0  0  0  0999 V2000
   26.4080    7.0420   -8.4430 C   0  0  0  0  0  0  0  0  0  0  0  0
   27.2840    7.0880   -9.5180 N   0  0  0  0  0  0  0  0  0  0  0  0
   27.6830    8.3110  -10.0400 C   0  0  0  0  0  0  0  0  0  0  0  0
   28.5270    8.0010  -11.0710 N   0  0  0  0  0  0  0  0  0  0  0  0
   25.9330    8.2210   -7.8830 N   0  0  0  0  0  0  0  0  0  0  0  0
   26.3300    9.4460   -8.4020 C   0  0  0  0  0  0  0  0  0  0  0  0
   27.2080    9.4930   -9.4810 C   0  0  0  0  0  0  0  0  0  0  0  0
   29.1160    9.1450  -11.7570 C   0  0  0  0  0  0  0  0  0  0  0  0
   30.4690    9.2630  -12.0560 N   0  0  0  0  0  0  0  0  0  0  0  0
   30.9380   10.3920  -12.7180 C   0  0  0  0  0  0  0  0  0  0  0  0
   30.0560   11.4020  -13.0790 C   0  0  0  0  0  0  0  0  0  0  0  0
   28.7040   11.2870  -12.7790 C   0  0  0  0  0  0  0  0  0  0  0  0
   28.2300   10.1400  -12.1420 C   0  0  0  0  0  0  0  0  0  0  0  0
   27.6050   10.7060   -9.9950 O   0  0  0  0  0  0  0  0  0  0  0  0
   27.1840   11.8530   -9.5130 C   0  0  0  0  0  0  0  0  0  0  0  0
   28.0380   12.7050   -8.8220 C   0  0  0  0  0  0  0  0  0  0  0  0
   27.5570   13.9030   -8.3070 C   0  0  0  0  0  0  0  0  0  0  0  0
   26.2220   14.2470   -8.4810 C   0  0  0  0  0  0  0  0  0  0  0  0
   25.3670   13.3940   -9.1700 N   0  0  0  0  0  0  0  0  0  0  0  0
   25.8500   12.1960   -9.6860 C   0  0  0  0  0  0  0  0  0  0  0  0
   30.5670   12.6270  -13.7960 C   0  0  1  0  0  0  0  0  0  0  0  0
   26.0896    6.0717   -8.0342 H   0  0  0  0  0  0  0  0  0  0  0  0
   28.7318    7.0290  -11.3432 H   0  0  0  0  0  0  0  0  0  0  0  0
   25.9507   10.3794   -7.9605 H   0  0  0  0  0  0  0  0  0  0  0  0
   32.0079   10.4852  -12.9559 H   0  0  0  0  0  0  0  0  0  0  0  0
   28.0095   12.0981  -13.0431 H   0  0  0  0  0  0  0  0  0  0  0  0
   27.1539   10.0248  -11.9452 H   0  0  0  0  0  0  0  0  0  0  0  0
   29.0942   12.4311   -8.6829 H   0  0  0  0  0  0  0  0  0  0  0  0
   28.2328   14.5785   -7.7620 H   0  0  0  0  0  0  0  0  0  0  0  0
   25.8412   15.1950   -8.0733 H   0  0  0  0  0  0  0  0  0  0  0  0
   25.1748   11.5202  -10.2313 H   0  0  0  0  0  0  0  0  0  0  0  0
   30.8810   13.3797  -13.0578 H   0  0  0  0  0  0  0  0  0  0  0  0
   31.4252   12.3515  -14.4265 H   0  0  0  0  0  0  0  0  0  0  0  0
   29.7674   13.0431  -14.4265 H   0  0  0  0  0  0  0  0  0  0  0  0
  1  2  2  0
  1  5  1  0
  2  3  1  0
  3  4  1  0
  3  7  2  0
  5  6  2  0
  6  7  1  0
  7 14  1  0
  4  8  1  0
  8 13  1  0
  8  9  2  0
  9 10  1  0
 10 11  2  0
 11 21  1  0
 11 12  1  0
 12 13  2  0
 14 15  1  0
 15 20  1  0
 15 16  2  0
 16 17  1  0
 17 18  2  0
 18 19  1  0
 19 20  2  0
  1 22  1  0
  4 23  1  0
  6 24  1  0
 10 25  1  0
 12 26  1  0
 13 27  1  0
 16 28  1  0
 17 29  1  0
 18 30  1  0
 20 31  1  0
 21 32  1  1
 21 33  1  0
 21 34  1  0
M  END
>  <Pose ID>  (27)
80

>  <Score>  (27)
-7.8295111656188965

>  <smiles>  (27)
Cc1ccc(Nc2ncncc2Oc2cccnc2)nc1

$$$$

     RDKit          3D

 40 42  0  0  0  0  0  0  0  0999 V2000
   26.4090    7.0420   -8.4400 C   0  0  0  0  0  0  0  0  0  0  0  0
   27.2850    7.0750   -9.5170 N   0  0  0  0  0  0  0  0  0  0  0  0
   27.6770    8.2920  -10.0590 C   0  0  0  0  0  0  0  0  0  0  0  0
   28.5210    7.9700  -11.0860 N   0  0  0  0  0  0  0  0  0  0  0  0
   25.9280    8.2260   -7.9000 N   0  0  0  0  0  0  0  0  0  0  0  0
   26.3180    9.4460   -8.4390 C   0  0  0  0  0  0  0  0  0  0  0  0
   27.1940    9.4800   -9.5190 C   0  0  0  0  0  0  0  0  0  0  0  0
   29.1030    9.1060  -11.7910 C   0  0  0  0  0  0  0  0  0  0  0  0
   30.4550    9.2270  -12.0930 N   0  0  0  0  0  0  0  0  0  0  0  0
   30.9170   10.3480  -12.7730 C   0  0  0  0  0  0  0  0  0  0  0  0
   30.0300   11.3470  -13.1490 C   0  0  0  0  0  0  0  0  0  0  0  0
   28.6780   11.2290  -12.8470 C   0  0  0  0  0  0  0  0  0  0  0  0
   28.2110   10.0910  -12.1910 C   0  0  0  0  0  0  0  0  0  0  0  0
   27.5850   10.6870  -10.0520 O   0  0  0  0  0  0  0  0  0  0  0  0
   27.1580   11.8390   -9.5880 C   0  0  0  0  0  0  0  0  0  0  0  0
   28.0070   12.7070   -8.9130 C   0  0  0  0  0  0  0  0  0  0  0  0
   27.5200   13.9100   -8.4170 C   0  0  0  0  0  0  0  0  0  0  0  0
   26.1830   14.2440   -8.5940 C   0  0  0  0  0  0  0  0  0  0  0  0
   25.3320   13.3750   -9.2690 N   0  0  0  0  0  0  0  0  0  0  0  0
   25.8210   12.1710   -9.7670 C   0  0  0  0  0  0  0  0  0  0  0  0
   25.6530   15.5490   -8.0550 C   0  0  1  0  0  0  0  0  0  0  0  0
   25.5030   16.4850   -9.2350 C   0  0  1  0  0  0  0  0  0  0  0  0
   26.7740   17.3130   -9.5360 C   0  0  1  0  0  0  0  0  0  0  0  0
   26.0964    6.0768   -8.0149 H   0  0  0  0  0  0  0  0  0  0  0  0
   28.7305    6.9948  -11.3430 H   0  0  0  0  0  0  0  0  0  0  0  0
   25.9342   10.3842   -8.0119 H   0  0  0  0  0  0  0  0  0  0  0  0
   31.9862   10.4433  -13.0132 H   0  0  0  0  0  0  0  0  0  0  0  0
   30.3972   12.2335  -13.6868 H   0  0  0  0  0  0  0  0  0  0  0  0
   27.9787   12.0314  -13.1249 H   0  0  0  0  0  0  0  0  0  0  0  0
   27.1358    9.9738  -11.9905 H   0  0  0  0  0  0  0  0  0  0  0  0
   29.0651   12.4418   -8.7712 H   0  0  0  0  0  0  0  0  0  0  0  0
   28.1929   14.5980   -7.8842 H   0  0  0  0  0  0  0  0  0  0  0  0
   25.1496   11.4830  -10.3017 H   0  0  0  0  0  0  0  0  0  0  0  0
   24.6775   15.3902   -7.5720 H   0  0  0  0  0  0  0  0  0  0  0  0
   26.3365   15.9705   -7.3032 H   0  0  0  0  0  0  0  0  0  0  0  0
   25.2597   15.8860  -10.1249 H   0  0  0  0  0  0  0  0  0  0  0  0
   24.7064   17.1994   -8.9799 H   0  0  0  0  0  0  0  0  0  0  0  0
   27.2445   17.6195   -8.5901 H   0  0  0  0  0  0  0  0  0  0  0  0
   27.4810   16.7017  -10.1160 H   0  0  0  0  0  0  0  0  0  0  0  0
   26.5005   18.2068  -10.1160 H   0  0  0  0  0  0  0  0  0  0  0  0
  1  2  2  0
  1  5  1  0
  2  3  1  0
  3  4  1  0
  3  7  2  0
  5  6  2  0
  6  7  1  0
  7 14  1  0
  4  8  1  0
  8 13  1  0
  8  9  2  0
  9 10  1  0
 10 11  2  0
 11 12  1  0
 12 13  2  0
 14 15  1  0
 15 20  1  0
 15 16  2  0
 16 17  1  0
 17 18  2  0
 18 19  1  0
 18 21  1  0
 19 20  2  0
 21 22  1  0
 22 23  1  0
  1 24  1  0
  4 25  1  0
  6 26  1  0
 10 27  1  0
 11 28  1  0
 12 29  1  0
 13 30  1  0
 16 31  1  0
 17 32  1  0
 20 33  1  0
 21 34  1  1
 21 35  1  0
 22 36  1  6
 22 37  1  0
 23 38  1  1
 23 39  1  0
 23 40  1  0
M  END
>  <Pose ID>  (28)
96

>  <Score>  (28)
-7.829090118408203

>  <smiles>  (28)
CCCc1ccc(Oc2cncnc2Nc2ccccn2)cn1

$$$$

     RDKit          3D

 37 39  0  0  0  0  0  0  0  0999 V2000
   26.4050    7.0420   -8.4400 C   0  0  0  0  0  0  0  0  0  0  0  0
   27.2950    7.0870   -9.5040 N   0  0  0  0  0  0  0  0  0  0  0  0
   27.6510    8.3080  -10.0620 C   0  0  0  0  0  0  0  0  0  0  0  0
   28.5220    7.9980  -11.0710 N   0  0  0  0  0  0  0  0  0  0  0  0
   25.8750    8.2180   -7.9270 N   0  0  0  0  0  0  0  0  0  0  0  0
   26.2290    9.4410   -8.4820 C   0  0  0  0  0  0  0  0  0  0  0  0
   27.1200    9.4870   -9.5510 C   0  0  0  0  0  0  0  0  0  0  0  0
   29.0730    9.1420  -11.7880 C   0  0  0  0  0  0  0  0  0  0  0  0
   30.4250    9.3060  -12.0730 N   0  0  0  0  0  0  0  0  0  0  0  0
   30.8570   10.4300  -12.7670 C   0  0  0  0  0  0  0  0  0  0  0  0
   29.9410   11.3910  -13.1730 C   0  0  0  0  0  0  0  0  0  0  0  0
   28.5900   11.2300  -12.8870 C   0  0  0  0  0  0  0  0  0  0  0  0
   28.1540   10.0870  -12.2180 C   0  0  0  0  0  0  0  0  0  0  0  0
   27.4750   10.6980  -10.1000 O   0  0  0  0  0  0  0  0  0  0  0  0
   27.0010   11.8420   -9.6630 C   0  0  0  0  0  0  0  0  0  0  0  0
   27.8100   12.7510   -8.9910 C   0  0  0  0  0  0  0  0  0  0  0  0
   27.2730   13.9450   -8.5230 C   0  0  0  0  0  0  0  0  0  0  0  0
   25.9280   14.2280   -8.7250 C   0  0  0  0  0  0  0  0  0  0  0  0
   25.1190   13.3180   -9.3960 N   0  0  0  0  0  0  0  0  0  0  0  0
   25.6570   12.1240   -9.8650 C   0  0  0  0  0  0  0  0  0  0  0  0
   25.3450   15.5230   -8.2170 C   0  0  1  0  0  0  0  0  0  0  0  0
   28.1510   14.9320   -7.7950 C   0  0  1  0  0  0  0  0  0  0  0  0
   26.1194    6.0738   -8.0029 H   0  0  0  0  0  0  0  0  0  0  0  0
   28.7704    7.0267  -11.3070 H   0  0  0  0  0  0  0  0  0  0  0  0
   25.8059   10.3723   -8.0775 H   0  0  0  0  0  0  0  0  0  0  0  0
   31.9255   10.5583  -12.9948 H   0  0  0  0  0  0  0  0  0  0  0  0
   30.2844   12.2805  -13.7214 H   0  0  0  0  0  0  0  0  0  0  0  0
   27.8669   12.0024  -13.1878 H   0  0  0  0  0  0  0  0  0  0  0  0
   27.0807    9.9349  -12.0313 H   0  0  0  0  0  0  0  0  0  0  0  0
   28.8745   12.5258   -8.8296 H   0  0  0  0  0  0  0  0  0  0  0  0
   25.0175   11.4034  -10.3958 H   0  0  0  0  0  0  0  0  0  0  0  0
   25.3467   15.5193   -7.1170 H   0  0  0  0  0  0  0  0  0  0  0  0
   25.9506   16.3658   -8.5818 H   0  0  0  0  0  0  0  0  0  0  0  0
   24.3126   15.6284   -8.5818 H   0  0  0  0  0  0  0  0  0  0  0  0
   28.0317   14.7979   -6.7097 H   0  0  0  0  0  0  0  0  0  0  0  0
   29.2018   14.7620   -8.0722 H   0  0  0  0  0  0  0  0  0  0  0  0
   27.8597   15.9559   -8.0722 H   0  0  0  0  0  0  0  0  0  0  0  0
  1  2  2  0
  1  5  1  0
  2  3  1  0
  3  4  1  0
  3  7  2  0
  5  6  2  0
  6  7  1  0
  7 14  1  0
  4  8  1  0
  8 13  1  0
  8  9  2  0
  9 10  1  0
 10 11  2  0
 11 12  1  0
 12 13  2  0
 14 15  1  0
 15 20  1  0
 15 16  2  0
 16 17  1  0
 17 18  2  0
 17 22  1  0
 18 19  1  0
 18 21  1  0
 19 20  2  0
  1 23  1  0
  4 24  1  0
  6 25  1  0
 10 26  1  0
 11 27  1  0
 12 28  1  0
 13 29  1  0
 16 30  1  0
 20 31  1  0
 21 32  1  1
 21 33  1  0
 21 34  1  0
 22 35  1  1
 22 36  1  0
 22 37  1  0
M  END
>  <Pose ID>  (29)
94

>  <Score>  (29)
-7.78874397277832

>  <smiles>  (29)
Cc1cc(Oc2cncnc2Nc2ccccn2)cnc1C

$$$$

     RDKit          3D

 37 39  0  0  0  0  0  0  0  0999 V2000
   26.4090    7.0420   -8.4410 C   0  0  0  0  0  0  0  0  0  0  0  0
   27.2750    7.0820   -9.5250 N   0  0  0  0  0  0  0  0  0  0  0  0
   27.6520    8.3020  -10.0690 C   0  0  0  0  0  0  0  0  0  0  0  0
   28.4900    7.9870  -11.1040 N   0  0  0  0  0  0  0  0  0  0  0  0
   25.9250    8.2230   -7.8940 N   0  0  0  0  0  0  0  0  0  0  0  0
   26.3000    9.4450   -8.4360 C   0  0  0  0  0  0  0  0  0  0  0  0
   27.1670    9.4860   -9.5240 C   0  0  0  0  0  0  0  0  0  0  0  0
   29.0570    9.1290  -11.8130 C   0  0  0  0  0  0  0  0  0  0  0  0
   30.4060    9.2590  -12.1270 N   0  0  0  0  0  0  0  0  0  0  0  0
   30.8540   10.3840  -12.8100 C   0  0  0  0  0  0  0  0  0  0  0  0
   29.9560   11.3780  -13.1770 C   0  0  0  0  0  0  0  0  0  0  0  0
   28.6090   11.2490  -12.8620 C   0  0  0  0  0  0  0  0  0  0  0  0
   28.1560   10.1070  -12.2040 C   0  0  0  0  0  0  0  0  0  0  0  0
   27.5430   10.6970  -10.0590 O   0  0  0  0  0  0  0  0  0  0  0  0
   27.1120   11.8450   -9.5910 C   0  0  0  0  0  0  0  0  0  0  0  0
   27.9620   12.7180   -8.9220 C   0  0  0  0  0  0  0  0  0  0  0  0
   27.4710   13.9180   -8.4190 C   0  0  0  0  0  0  0  0  0  0  0  0
   26.1290   14.2420   -8.5860 C   0  0  0  0  0  0  0  0  0  0  0  0
   25.2790   13.3680   -9.2530 N   0  0  0  0  0  0  0  0  0  0  0  0
   25.7720   12.1680   -9.7560 C   0  0  0  0  0  0  0  0  0  0  0  0
   27.6380   12.3440  -13.2330 C   0  0  1  0  0  0  0  0  0  0  0  0
   28.0280   13.7470  -12.7830 C   0  0  1  0  0  0  0  0  0  0  0  0
   26.1059    6.0742   -8.0150 H   0  0  0  0  0  0  0  0  0  0  0  0
   28.7049    7.0137  -11.3637 H   0  0  0  0  0  0  0  0  0  0  0  0
   25.9121   10.3801   -8.0058 H   0  0  0  0  0  0  0  0  0  0  0  0
   31.9203   10.4870  -13.0599 H   0  0  0  0  0  0  0  0  0  0  0  0
   30.3115   12.2678  -13.7173 H   0  0  0  0  0  0  0  0  0  0  0  0
   27.0833    9.9818  -11.9949 H   0  0  0  0  0  0  0  0  0  0  0  0
   29.0231   12.4597   -8.7904 H   0  0  0  0  0  0  0  0  0  0  0  0
   28.1430   14.6097   -7.8899 H   0  0  0  0  0  0  0  0  0  0  0  0
   25.7397   15.1914   -8.1896 H   0  0  0  0  0  0  0  0  0  0  0  0
   25.1002   11.4755  -10.2842 H   0  0  0  0  0  0  0  0  0  0  0  0
   27.5412   12.3542  -14.3287 H   0  0  0  0  0  0  0  0  0  0  0  0
   26.7011   12.1077  -12.7073 H   0  0  0  0  0  0  0  0  0  0  0  0
   28.0398   13.7895  -11.6839 H   0  0  0  0  0  0  0  0  0  0  0  0
   29.0282   13.9915  -13.1702 H   0  0  0  0  0  0  0  0  0  0  0  0
   27.2975   14.4726  -13.1702 H   0  0  0  0  0  0  0  0  0  0  0  0
  1  2  2  0
  1  5  1  0
  2  3  1  0
  3  4  1  0
  3  7  2  0
  5  6  2  0
  6  7  1  0
  7 14  1  0
  4  8  1  0
  8 13  1  0
  8  9  2  0
  9 10  1  0
 10 11  2  0
 11 12  1  0
 12 21  1  0
 12 13  2  0
 21 22  1  0
 14 15  1  0
 15 20  1  0
 15 16  2  0
 16 17  1  0
 17 18  2  0
 18 19  1  0
 19 20  2  0
  1 23  1  0
  4 24  1  0
  6 25  1  0
 10 26  1  0
 11 27  1  0
 13 28  1  0
 16 29  1  0
 17 30  1  0
 18 31  1  0
 20 32  1  0
 21 33  1  6
 21 34  1  0
 22 35  1  1
 22 36  1  0
 22 37  1  0
M  END
>  <Pose ID>  (30)
84

>  <Score>  (30)
-7.784262180328369

>  <smiles>  (30)
CCc1ccnc(Nc2ncncc2Oc2cccnc2)c1

$$$$

     RDKit          3D

 39 41  0  0  0  0  0  0  0  0999 V2000
   27.6480    8.3020  -10.0530 C   0  0  0  0  0  0  0  0  0  0  0  0
   27.3560    7.1120   -9.3990 N   0  0  0  0  0  0  0  0  0  0  0  0
   26.6970    7.1320   -8.1760 C   0  0  0  0  0  0  0  0  0  0  0  0
   26.3270    8.3440   -7.6080 N   0  0  0  0  0  0  0  0  0  0  0  0
   28.2670    8.1920  -11.1520 N   0  0  0  0  0  0  0  0  0  0  0  0
   26.6160    9.5360   -8.2610 C   0  0  0  0  0  0  0  0  0  0  0  0
   27.2600    9.5080   -9.4980 C   0  0  0  0  0  0  0  0  0  0  0  0
   28.5550    9.2960  -11.8340 C   0  0  0  0  0  0  0  0  0  0  0  0
   29.8660    9.7250  -12.0060 N   0  0  0  0  0  0  0  0  0  0  0  0
   30.1330   10.8810  -12.7280 C   0  0  0  0  0  0  0  0  0  0  0  0
   29.0850   11.6120  -13.2780 C   0  0  0  0  0  0  0  0  0  0  0  0
   27.7730   11.1850  -13.1080 C   0  0  0  0  0  0  0  0  0  0  0  0
   27.5140   10.0090  -12.4090 C   0  0  0  0  0  0  0  0  0  0  0  0
   28.7920    7.0420  -11.9140 C   0  0  1  0  0  0  0  0  0  0  0  0
   29.3480   12.7600  -13.9910 O   0  0  0  0  0  0  0  0  0  0  0  0
   29.7540   13.7930  -13.1020 C   0  0  1  0  0  0  0  0  0  0  0  0
   28.6230   14.7120  -12.6210 C   0  0  1  0  0  0  0  0  0  0  0  0
   26.3740   10.8350   -7.9070 N   0  0  0  0  0  0  0  0  0  0  0  0
   26.8560   11.4430   -6.7800 C   0  0  0  0  0  0  0  0  0  0  0  0
   26.4160   12.6970   -6.8440 C   0  0  0  0  0  0  0  0  0  0  0  0
   25.6600   11.7620   -8.6020 C   0  0  0  0  0  0  0  0  0  0  0  0
   25.6600   12.8570   -7.8700 C   0  0  0  0  0  0  0  0  0  0  0  0
   26.4686    6.1888   -7.6582 H   0  0  0  0  0  0  0  0  0  0  0  0
   27.4599   10.4478  -10.0336 H   0  0  0  0  0  0  0  0  0  0  0  0
   31.1712   11.2179  -12.8647 H   0  0  0  0  0  0  0  0  0  0  0  0
   26.9425   11.7741  -13.5242 H   0  0  0  0  0  0  0  0  0  0  0  0
   26.4806    9.6445  -12.3126 H   0  0  0  0  0  0  0  0  0  0  0  0
   29.1448    6.2693  -11.2151 H   0  0  0  0  0  0  0  0  0  0  0  0
   27.9942    6.6269  -12.5474 H   0  0  0  0  0  0  0  0  0  0  0  0
   29.6283    7.3728  -12.5474 H   0  0  0  0  0  0  0  0  0  0  0  0
   30.2120   13.3236  -12.2189 H   0  0  0  0  0  0  0  0  0  0  0  0
   30.4507   14.4301  -13.6665 H   0  0  0  0  0  0  0  0  0  0  0  0
   28.6050   14.7266  -11.5212 H   0  0  0  0  0  0  0  0  0  0  0  0
   28.7930   15.7311  -12.9985 H   0  0  0  0  0  0  0  0  0  0  0  0
   27.6602   14.3370  -12.9985 H   0  0  0  0  0  0  0  0  0  0  0  0
   27.4747   10.9918   -5.9903 H   0  0  0  0  0  0  0  0  0  0  0  0
   26.6649   13.4864   -6.1195 H   0  0  0  0  0  0  0  0  0  0  0  0
   25.1783   11.6241   -9.5812 H   0  0  0  0  0  0  0  0  0  0  0  0
   25.0963   13.7725   -8.1028 H   0  0  0  0  0  0  0  0  0  0  0  0
  1  5  1  0
  1  7  1  0
  1  2  2  0
  2  3  1  0
  3  4  2  0
  4  6  1  0
  5 14  1  0
  5  8  1  0
  6  7  2  0
  6 18  1  0
  8 13  1  0
  8  9  2  0
  9 10  1  0
 10 11  2  0
 11 15  1  0
 11 12  1  0
 12 13  2  0
 18 21  1  0
 18 19  1  0
 19 20  2  0
 20 22  1  0
 21 22  2  0
 15 16  1  0
 16 17  1  0
  3 23  1  0
  7 24  1  0
 10 25  1  0
 12 26  1  0
 13 27  1  0
 14 28  1  1
 14 29  1  0
 14 30  1  0
 16 31  1  1
 16 32  1  0
 17 33  1  1
 17 34  1  0
 17 35  1  0
 19 36  1  0
 20 37  1  0
 21 38  1  0
 22 39  1  0
M  END
>  <Pose ID>  (31)
165

>  <Score>  (31)
-7.773976802825928

>  <smiles>  (31)
CCOc1ccc(N(C)c2cc(-n3cccc3)ncn2)nc1

$$$$

     RDKit          3D

 18 19  0  0  0  0  0  0  0  0999 V2000
   27.9690    7.9850  -10.4730 C   0  0  0  0  0  0  0  0  0  0  0  0
   27.4300    7.0420   -9.5860 N   0  0  0  0  0  0  0  0  0  0  0  0
   26.3090    7.3980   -8.8470 C   0  0  0  0  0  0  0  0  0  0  0  0
   25.7490    8.6600   -9.0000 N   0  0  0  0  0  0  0  0  0  0  0  0
   27.3230    9.2120  -10.5460 C   0  0  0  0  0  0  0  0  0  0  0  0
   26.3120    9.5630   -9.8920 C   0  0  0  0  0  0  0  0  0  0  0  0
   29.0840    7.7390  -11.2640 N   0  0  0  0  0  0  0  0  0  0  0  0
   29.5540    8.7220  -12.1280 C   0  0  0  0  0  0  0  0  0  0  0  0
   28.9080    9.9490  -12.2020 C   0  0  0  0  0  0  0  0  0  0  0  0
   27.7920   10.1960  -11.4110 C   0  0  0  0  0  0  0  0  0  0  0  0
   27.0900   11.5290  -11.4890 C   0  0  1  0  0  0  0  0  0  0  0  0
   25.8649    6.6809   -8.1409 H   0  0  0  0  0  0  0  0  0  0  0  0
   25.8799   10.5662  -10.0224 H   0  0  0  0  0  0  0  0  0  0  0  0
   30.4380    8.5275  -12.7532 H   0  0  0  0  0  0  0  0  0  0  0  0
   29.2795   10.7256  -12.8867 H   0  0  0  0  0  0  0  0  0  0  0  0
   26.8944   11.9004  -10.4723 H   0  0  0  0  0  0  0  0  0  0  0  0
   27.7265   12.2478  -12.0258 H   0  0  0  0  0  0  0  0  0  0  0  0
   26.1372   11.4108  -12.0258 H   0  0  0  0  0  0  0  0  0  0  0  0
  1  7  1  0
  1  5  1  0
  1  2  2  0
  2  3  1  0
  3  4  2  0
  4  6  1  0
  5 10  1  0
  5  6  2  0
  7  8  2  0
  8  9  1  0
  9 10  2  0
 10 11  1  0
  3 12  1  0
  6 13  1  0
  8 14  1  0
  9 15  1  0
 11 16  1  1
 11 17  1  0
 11 18  1  0
M  END
>  <Pose ID>  (32)
177

>  <Score>  (32)
-7.767604351043701

>  <smiles>  (32)
Cc1ccnc2ncncc12

$$$$

     RDKit          3D

 34 36  0  0  0  0  0  0  0  0999 V2000
   26.4110    7.0420   -8.4430 C   0  0  0  0  0  0  0  0  0  0  0  0
   27.2790    7.0710   -9.5260 N   0  0  0  0  0  0  0  0  0  0  0  0
   27.6710    8.2860  -10.0710 C   0  0  0  0  0  0  0  0  0  0  0  0
   28.5070    7.9600  -11.1040 N   0  0  0  0  0  0  0  0  0  0  0  0
   25.9390    8.2290   -7.8990 N   0  0  0  0  0  0  0  0  0  0  0  0
   26.3290    9.4460   -8.4420 C   0  0  0  0  0  0  0  0  0  0  0  0
   27.1980    9.4760   -9.5290 C   0  0  0  0  0  0  0  0  0  0  0  0
   29.0880    9.0940  -11.8140 C   0  0  0  0  0  0  0  0  0  0  0  0
   30.4390    9.2090  -12.1260 N   0  0  0  0  0  0  0  0  0  0  0  0
   30.9000   10.3280  -12.8100 C   0  0  0  0  0  0  0  0  0  0  0  0
   30.0140   11.3310  -13.1800 C   0  0  0  0  0  0  0  0  0  0  0  0
   28.6650   11.2180  -12.8670 C   0  0  0  0  0  0  0  0  0  0  0  0
   28.1980   10.0820  -12.2080 C   0  0  0  0  0  0  0  0  0  0  0  0
   27.5890   10.6820  -10.0650 O   0  0  0  0  0  0  0  0  0  0  0  0
   27.1700   11.8350   -9.5990 C   0  0  0  0  0  0  0  0  0  0  0  0
   28.0280   12.7000   -8.9300 C   0  0  0  0  0  0  0  0  0  0  0  0
   27.5500   13.9060   -8.4300 C   0  0  0  0  0  0  0  0  0  0  0  0
   26.2120   14.2450   -8.5990 C   0  0  0  0  0  0  0  0  0  0  0  0
   25.3530   13.3790   -9.2670 N   0  0  0  0  0  0  0  0  0  0  0  0
   25.8340   12.1730   -9.7670 C   0  0  0  0  0  0  0  0  0  0  0  0
   27.7070   12.3230  -13.2410 C   0  0  1  0  0  0  0  0  0  0  0  0
   26.0970    6.0782   -8.0157 H   0  0  0  0  0  0  0  0  0  0  0  0
   28.7114    6.9839  -11.3617 H   0  0  0  0  0  0  0  0  0  0  0  0
   25.9514   10.3860   -8.0133 H   0  0  0  0  0  0  0  0  0  0  0  0
   31.9677   10.4189  -13.0584 H   0  0  0  0  0  0  0  0  0  0  0  0
   30.3803   12.2157  -13.7213 H   0  0  0  0  0  0  0  0  0  0  0  0
   27.1237    9.9691  -12.0005 H   0  0  0  0  0  0  0  0  0  0  0  0
   29.0860   12.4302   -8.7961 H   0  0  0  0  0  0  0  0  0  0  0  0
   28.2292   14.5910   -7.9015 H   0  0  0  0  0  0  0  0  0  0  0  0
   25.8327   15.1990   -8.2040 H   0  0  0  0  0  0  0  0  0  0  0  0
   25.1556   11.4872  -10.2955 H   0  0  0  0  0  0  0  0  0  0  0  0
   27.3060   12.7855  -12.3271 H   0  0  0  0  0  0  0  0  0  0  0  0
   28.2371   13.0827  -13.8342 H   0  0  0  0  0  0  0  0  0  0  0  0
   26.8798   11.9060  -13.8342 H   0  0  0  0  0  0  0  0  0  0  0  0
  1  2  2  0
  1  5  1  0
  2  3  1  0
  3  4  1  0
  3  7  2  0
  5  6  2  0
  6  7  1  0
  7 14  1  0
  4  8  1  0
  8 13  1  0
  8  9  2  0
  9 10  1  0
 10 11  2  0
 11 12  1  0
 12 21  1  0
 12 13  2  0
 14 15  1  0
 15 20  1  0
 15 16  2  0
 16 17  1  0
 17 18  2  0
 18 19  1  0
 19 20  2  0
  1 22  1  0
  4 23  1  0
  6 24  1  0
 10 25  1  0
 11 26  1  0
 13 27  1  0
 16 28  1  0
 17 29  1  0
 18 30  1  0
 20 31  1  0
 21 32  1  1
 21 33  1  0
 21 34  1  0
M  END
>  <Pose ID>  (33)
78

>  <Score>  (33)
-7.759109020233154

>  <smiles>  (33)
Cc1ccnc(Nc2ncncc2Oc2cccnc2)c1

$$$$

     RDKit          3D

 41 43  0  0  0  0  0  0  0  0999 V2000
   26.4090    7.0420   -8.4370 C   0  0  0  0  0  0  0  0  0  0  0  0
   27.2740    7.0820   -9.5230 N   0  0  0  0  0  0  0  0  0  0  0  0
   27.6530    8.3040  -10.0640 C   0  0  0  0  0  0  0  0  0  0  0  0
   28.4900    7.9880  -11.1000 N   0  0  0  0  0  0  0  0  0  0  0  0
   25.9240    8.2230   -7.8920 N   0  0  0  0  0  0  0  0  0  0  0  0
   26.3020    9.4460   -8.4310 C   0  0  0  0  0  0  0  0  0  0  0  0
   27.1690    9.4870   -9.5190 C   0  0  0  0  0  0  0  0  0  0  0  0
   29.0600    9.1280  -11.8080 C   0  0  0  0  0  0  0  0  0  0  0  0
   30.4080    9.2600  -12.1220 N   0  0  0  0  0  0  0  0  0  0  0  0
   30.8570   10.3840  -12.8030 C   0  0  0  0  0  0  0  0  0  0  0  0
   29.9610   11.3790  -13.1700 C   0  0  0  0  0  0  0  0  0  0  0  0
   28.6130   11.2520  -12.8550 C   0  0  0  0  0  0  0  0  0  0  0  0
   28.1590   10.1110  -12.1980 C   0  0  0  0  0  0  0  0  0  0  0  0
   27.5460   10.7000  -10.0530 O   0  0  0  0  0  0  0  0  0  0  0  0
   27.1250   11.8420   -9.5700 C   0  0  0  0  0  0  0  0  0  0  0  0
   27.9710   12.7260   -8.9120 C   0  0  0  0  0  0  0  0  0  0  0  0
   27.4740   13.9240   -8.4140 C   0  0  0  0  0  0  0  0  0  0  0  0
   26.1300   14.2390   -8.5730 C   0  0  0  0  0  0  0  0  0  0  0  0
   25.2820   13.3520   -9.2290 C   0  0  0  0  0  0  0  0  0  0  0  0
   25.7630   12.1710   -9.7620 C   0  0  0  0  0  0  0  0  0  0  0  0
   27.6430   12.3480  -13.2240 C   0  0  1  0  0  0  0  0  0  0  0  0
   25.5900   15.5410   -8.0340 C   0  0  1  0  0  0  0  0  0  0  0  0
   28.0350   13.7490  -12.7740 C   0  0  1  0  0  0  0  0  0  0  0  0
   26.1083    6.0744   -8.0088 H   0  0  0  0  0  0  0  0  0  0  0  0
   28.7020    7.0144  -11.3608 H   0  0  0  0  0  0  0  0  0  0  0  0
   25.9166   10.3811   -7.9985 H   0  0  0  0  0  0  0  0  0  0  0  0
   31.9236   10.4860  -13.0519 H   0  0  0  0  0  0  0  0  0  0  0  0
   30.3179   12.2682  -13.7103 H   0  0  0  0  0  0  0  0  0  0  0  0
   27.0863    9.9880  -11.9877 H   0  0  0  0  0  0  0  0  0  0  0  0
   29.0350   12.4773   -8.7852 H   0  0  0  0  0  0  0  0  0  0  0  0
   28.1448   14.6235   -7.8936 H   0  0  0  0  0  0  0  0  0  0  0  0
   24.2133   13.5943   -9.3248 H   0  0  0  0  0  0  0  0  0  0  0  0
   25.0986   11.4992  -10.3253 H   0  0  0  0  0  0  0  0  0  0  0  0
   27.5448   12.3590  -14.3195 H   0  0  0  0  0  0  0  0  0  0  0  0
   26.7065   12.1125  -12.6973 H   0  0  0  0  0  0  0  0  0  0  0  0
   25.6007   15.5152   -6.9344 H   0  0  0  0  0  0  0  0  0  0  0  0
   26.2175   16.3725   -8.3874 H   0  0  0  0  0  0  0  0  0  0  0  0
   24.5582   15.6843   -8.3874 H   0  0  0  0  0  0  0  0  0  0  0  0
   28.0468   13.7912  -11.6749 H   0  0  0  0  0  0  0  0  0  0  0  0
   29.0356   13.9919  -13.1610 H   0  0  0  0  0  0  0  0  0  0  0  0
   27.3057   14.4759  -13.1610 H   0  0  0  0  0  0  0  0  0  0  0  0
  1  2  2  0
  1  5  1  0
  2  3  1  0
  3  4  1  0
  3  7  2  0
  5  6  2  0
  6  7  1  0
  7 14  1  0
  4  8  1  0
  8 13  1  0
  8  9  2  0
  9 10  1  0
 10 11  2  0
 11 12  1  0
 12 21  1  0
 12 13  2  0
 21 23  1  0
 14 15  1  0
 15 20  1  0
 15 16  2  0
 16 17  1  0
 17 18  2  0
 18 19  1  0
 18 22  1  0
 19 20  2  0
  1 24  1  0
  4 25  1  0
  6 26  1  0
 10 27  1  0
 11 28  1  0
 13 29  1  0
 16 30  1  0
 17 31  1  0
 19 32  1  0
 20 33  1  0
 21 34  1  6
 21 35  1  0
 22 36  1  1
 22 37  1  0
 22 38  1  0
 23 39  1  1
 23 40  1  0
 23 41  1  0
M  END
>  <Pose ID>  (34)
112

>  <Score>  (34)
-7.749405384063721

>  <smiles>  (34)
CCc1ccnc(Nc2ncncc2Oc2ccc(C)cc2)c1

$$$$

     RDKit          3D

 35 37  0  0  0  0  0  0  0  0999 V2000
   26.4110    7.0420   -8.4410 C   0  0  0  0  0  0  0  0  0  0  0  0
   27.2770    7.0700   -9.5260 N   0  0  0  0  0  0  0  0  0  0  0  0
   27.6740    8.2860  -10.0670 C   0  0  0  0  0  0  0  0  0  0  0  0
   28.5070    7.9580  -11.1020 N   0  0  0  0  0  0  0  0  0  0  0  0
   25.9430    8.2300   -7.8960 N   0  0  0  0  0  0  0  0  0  0  0  0
   26.3390    9.4470   -8.4350 C   0  0  0  0  0  0  0  0  0  0  0  0
   27.2070    9.4760   -9.5220 C   0  0  0  0  0  0  0  0  0  0  0  0
   29.0940    9.0900  -11.8100 C   0  0  0  0  0  0  0  0  0  0  0  0
   30.4440    9.2020  -12.1230 N   0  0  0  0  0  0  0  0  0  0  0  0
   30.9100   10.3200  -12.8040 C   0  0  0  0  0  0  0  0  0  0  0  0
   30.0280   11.3270  -13.1710 C   0  0  0  0  0  0  0  0  0  0  0  0
   28.6780   11.2200  -12.8570 C   0  0  0  0  0  0  0  0  0  0  0  0
   28.2080   10.0850  -12.2010 C   0  0  0  0  0  0  0  0  0  0  0  0
   27.6020   10.6830  -10.0560 O   0  0  0  0  0  0  0  0  0  0  0  0
   27.1970   11.8310   -9.5730 C   0  0  0  0  0  0  0  0  0  0  0  0
   28.0550   12.7030   -8.9150 C   0  0  0  0  0  0  0  0  0  0  0  0
   27.5750   13.9080   -8.4170 C   0  0  0  0  0  0  0  0  0  0  0  0
   26.2350   14.2420   -8.5770 C   0  0  0  0  0  0  0  0  0  0  0  0
   25.3750   13.3680   -9.2340 C   0  0  0  0  0  0  0  0  0  0  0  0
   25.8400   12.1800   -9.7660 C   0  0  0  0  0  0  0  0  0  0  0  0
   27.7240   12.3290  -13.2270 C   0  0  1  0  0  0  0  0  0  0  0  0
   26.0958    6.0788   -8.0134 H   0  0  0  0  0  0  0  0  0  0  0  0
   28.7053    6.9814  -11.3624 H   0  0  0  0  0  0  0  0  0  0  0  0
   25.9667   10.3875   -8.0028 H   0  0  0  0  0  0  0  0  0  0  0  0
   31.9781   10.4070  -13.0523 H   0  0  0  0  0  0  0  0  0  0  0  0
   30.3978   12.2110  -13.7111 H   0  0  0  0  0  0  0  0  0  0  0  0
   27.1334    9.9766  -11.9923 H   0  0  0  0  0  0  0  0  0  0  0  0
   29.1154   12.4393   -8.7881 H   0  0  0  0  0  0  0  0  0  0  0  0
   28.2553   14.5978   -7.8961 H   0  0  0  0  0  0  0  0  0  0  0  0
   25.8551   15.1967   -8.1844 H   0  0  0  0  0  0  0  0  0  0  0  0
   24.3101   13.6259   -9.3315 H   0  0  0  0  0  0  0  0  0  0  0  0
   25.1665   11.5176  -10.3296 H   0  0  0  0  0  0  0  0  0  0  0  0
   27.3263   12.7913  -12.3115 H   0  0  0  0  0  0  0  0  0  0  0  0
   28.2560   13.0878  -13.8196 H   0  0  0  0  0  0  0  0  0  0  0  0
   26.8942   11.9164  -13.8196 H   0  0  0  0  0  0  0  0  0  0  0  0
  1  2  2  0
  1  5  1  0
  2  3  1  0
  3  4  1  0
  3  7  2  0
  5  6  2  0
  6  7  1  0
  7 14  1  0
  4  8  1  0
  8 13  1  0
  8  9  2  0
  9 10  1  0
 10 11  2  0
 11 12  1  0
 12 21  1  0
 12 13  2  0
 14 15  1  0
 15 20  1  0
 15 16  2  0
 16 17  1  0
 17 18  2  0
 18 19  1  0
 19 20  2  0
  1 22  1  0
  4 23  1  0
  6 24  1  0
 10 25  1  0
 11 26  1  0
 13 27  1  0
 16 28  1  0
 17 29  1  0
 18 30  1  0
 19 31  1  0
 20 32  1  0
 21 33  1  1
 21 34  1  0
 21 35  1  0
M  END
>  <Pose ID>  (35)
102

>  <Score>  (35)
-7.744808673858643

>  <smiles>  (35)
Cc1ccnc(Nc2ncncc2Oc2ccccc2)c1

$$$$

     RDKit          3D

 41 43  0  0  0  0  0  0  0  0999 V2000
   26.4090    7.0420   -8.4400 C   0  0  0  0  0  0  0  0  0  0  0  0
   27.2760    7.0770   -9.5230 N   0  0  0  0  0  0  0  0  0  0  0  0
   27.6610    8.2960  -10.0660 C   0  0  0  0  0  0  0  0  0  0  0  0
   28.4990    7.9750  -11.1000 N   0  0  0  0  0  0  0  0  0  0  0  0
   25.9280    8.2260   -7.8980 N   0  0  0  0  0  0  0  0  0  0  0  0
   26.3120    9.4460   -8.4380 C   0  0  0  0  0  0  0  0  0  0  0  0
   27.1810    9.4820   -9.5240 C   0  0  0  0  0  0  0  0  0  0  0  0
   29.0750    9.1120  -11.8090 C   0  0  0  0  0  0  0  0  0  0  0  0
   30.4240    9.2370  -12.1200 N   0  0  0  0  0  0  0  0  0  0  0  0
   30.8800   10.3590  -12.8030 C   0  0  0  0  0  0  0  0  0  0  0  0
   29.9880   11.3560  -13.1730 C   0  0  0  0  0  0  0  0  0  0  0  0
   28.6380   11.2350  -12.8610 C   0  0  0  0  0  0  0  0  0  0  0  0
   28.1790   10.0960  -12.2030 C   0  0  0  0  0  0  0  0  0  0  0  0
   27.5640   10.6920  -10.0600 O   0  0  0  0  0  0  0  0  0  0  0  0
   27.1460   11.8370   -9.5800 C   0  0  0  0  0  0  0  0  0  0  0  0
   27.9940   12.7190   -8.9220 C   0  0  0  0  0  0  0  0  0  0  0  0
   27.5010   13.9200   -8.4270 C   0  0  0  0  0  0  0  0  0  0  0  0
   26.1580   14.2390   -8.5900 C   0  0  0  0  0  0  0  0  0  0  0  0
   25.3080   13.3550   -9.2460 C   0  0  0  0  0  0  0  0  0  0  0  0
   25.7860   12.1710   -9.7750 C   0  0  0  0  0  0  0  0  0  0  0  0
   27.6730   12.3330  -13.2340 C   0  0  1  0  0  0  0  0  0  0  0  0
   25.6220   15.5450   -8.0550 C   0  0  1  0  0  0  0  0  0  0  0  0
   25.5450   16.5690   -9.2070 C   0  0  1  0  0  0  0  0  0  0  0  0
   26.1030    6.0763   -8.0112 H   0  0  0  0  0  0  0  0  0  0  0  0
   28.7078    7.0001  -11.3587 H   0  0  0  0  0  0  0  0  0  0  0  0
   25.9296   10.3833   -8.0077 H   0  0  0  0  0  0  0  0  0  0  0  0
   31.9475   10.4565  -13.0501 H   0  0  0  0  0  0  0  0  0  0  0  0
   30.3493   12.2431  -13.7138 H   0  0  0  0  0  0  0  0  0  0  0  0
   27.1054    9.9764  -11.9955 H   0  0  0  0  0  0  0  0  0  0  0  0
   29.0568   12.4663   -8.7928 H   0  0  0  0  0  0  0  0  0  0  0  0
   28.1732   14.6180   -7.9064 H   0  0  0  0  0  0  0  0  0  0  0  0
   24.2406   13.6016   -9.3452 H   0  0  0  0  0  0  0  0  0  0  0  0
   25.1201   11.5003  -10.3378 H   0  0  0  0  0  0  0  0  0  0  0  0
   27.2692   12.7925  -12.3198 H   0  0  0  0  0  0  0  0  0  0  0  0
   28.1977   13.0965  -13.8271 H   0  0  0  0  0  0  0  0  0  0  0  0
   26.8485   11.9107  -13.8271 H   0  0  0  0  0  0  0  0  0  0  0  0
   24.6177   15.3866   -7.6352 H   0  0  0  0  0  0  0  0  0  0  0  0
   26.2886   15.9239   -7.2663 H   0  0  0  0  0  0  0  0  0  0  0  0
   25.4687   17.5843   -8.7906 H   0  0  0  0  0  0  0  0  0  0  0  0
   26.4513   16.4937   -9.8258 H   0  0  0  0  0  0  0  0  0  0  0  0
   24.6601   16.3590   -9.8258 H   0  0  0  0  0  0  0  0  0  0  0  0
  1  2  2  0
  1  5  1  0
  2  3  1  0
  3  4  1  0
  3  7  2  0
  5  6  2  0
  6  7  1  0
  7 14  1  0
  4  8  1  0
  8 13  1  0
  8  9  2  0
  9 10  1  0
 10 11  2  0
 11 12  1  0
 12 21  1  0
 12 13  2  0
 14 15  1  0
 15 20  1  0
 15 16  2  0
 16 17  1  0
 17 18  2  0
 18 19  1  0
 18 22  1  0
 19 20  2  0
 22 23  1  0
  1 24  1  0
  4 25  1  0
  6 26  1  0
 10 27  1  0
 11 28  1  0
 13 29  1  0
 16 30  1  0
 17 31  1  0
 19 32  1  0
 20 33  1  0
 21 34  1  1
 21 35  1  0
 21 36  1  0
 22 37  1  1
 22 38  1  0
 23 39  1  1
 23 40  1  0
 23 41  1  0
M  END
>  <Pose ID>  (36)
111

>  <Score>  (36)
-7.744688510894775

>  <smiles>  (36)
CCc1ccc(Oc2cncnc2Nc2cc(C)ccn2)cc1

$$$$

     RDKit          3D

 31 33  0  0  0  0  0  0  0  0999 V2000
   26.4050    7.0420   -8.4430 C   0  0  0  0  0  0  0  0  0  0  0  0
   27.2830    7.0710   -9.5190 N   0  0  0  0  0  0  0  0  0  0  0  0
   27.6780    8.2880  -10.0600 C   0  0  0  0  0  0  0  0  0  0  0  0
   28.5240    7.9630  -11.0870 N   0  0  0  0  0  0  0  0  0  0  0  0
   25.9250    8.2270   -7.9050 N   0  0  0  0  0  0  0  0  0  0  0  0
   26.3190    9.4460   -8.4460 C   0  0  0  0  0  0  0  0  0  0  0  0
   27.1980    9.4770   -9.5240 C   0  0  0  0  0  0  0  0  0  0  0  0
   29.1100    9.0970  -11.7920 C   0  0  0  0  0  0  0  0  0  0  0  0
   30.4620    9.2160  -12.0920 N   0  0  0  0  0  0  0  0  0  0  0  0
   30.9280   10.3340  -12.7720 C   0  0  0  0  0  0  0  0  0  0  0  0
   30.0430   11.3340  -13.1510 C   0  0  0  0  0  0  0  0  0  0  0  0
   28.6910   11.2190  -12.8510 C   0  0  0  0  0  0  0  0  0  0  0  0
   28.2220   10.0830  -12.1960 C   0  0  0  0  0  0  0  0  0  0  0  0
   27.5910   10.6840  -10.0570 O   0  0  0  0  0  0  0  0  0  0  0  0
   27.1470   11.8040   -9.5280 C   0  0  0  0  0  0  0  0  0  0  0  0
   28.0290   12.7030   -8.9410 C   0  0  0  0  0  0  0  0  0  0  0  0
   27.5620   13.9190   -8.4570 C   0  0  0  0  0  0  0  0  0  0  0  0
   26.2120   14.2340   -8.5590 N   0  0  0  0  0  0  0  0  0  0  0  0
   25.3300   13.3350   -9.1460 C   0  0  0  0  0  0  0  0  0  0  0  0
   25.7980   12.1190   -9.6310 C   0  0  0  0  0  0  0  0  0  0  0  0
   26.0899    6.0780   -8.0170 H   0  0  0  0  0  0  0  0  0  0  0  0
   28.7315    6.9872  -11.3431 H   0  0  0  0  0  0  0  0  0  0  0  0
   25.9357   10.3857   -8.0216 H   0  0  0  0  0  0  0  0  0  0  0  0
   31.9979   10.4269  -13.0101 H   0  0  0  0  0  0  0  0  0  0  0  0
   30.4125   12.2190  -13.6897 H   0  0  0  0  0  0  0  0  0  0  0  0
   27.9936   12.0226  -13.1300 H   0  0  0  0  0  0  0  0  0  0  0  0
   27.1460    9.9675  -11.9988 H   0  0  0  0  0  0  0  0  0  0  0  0
   29.0969   12.4521   -8.8594 H   0  0  0  0  0  0  0  0  0  0  0  0
   28.2601   14.6317   -7.9935 H   0  0  0  0  0  0  0  0  0  0  0  0
   24.2619   13.5853   -9.2269 H   0  0  0  0  0  0  0  0  0  0  0  0
   25.1005   11.4068  -10.0960 H   0  0  0  0  0  0  0  0  0  0  0  0
  1  2  2  0
  1  5  1  0
  2  3  1  0
  3  4  1  0
  3  7  2  0
  5  6  2  0
  6  7  1  0
  7 14  1  0
  4  8  1  0
  8 13  1  0
  8  9  2  0
  9 10  1  0
 10 11  2  0
 11 12  1  0
 12 13  2  0
 14 15  1  0
 15 20  1  0
 15 16  2  0
 16 17  1  0
 17 18  2  0
 18 19  1  0
 19 20  2  0
  1 21  1  0
  4 22  1  0
  6 23  1  0
 10 24  1  0
 11 25  1  0
 12 26  1  0
 13 27  1  0
 16 28  1  0
 17 29  1  0
 19 30  1  0
 20 31  1  0
M  END
>  <Pose ID>  (37)
67

>  <Score>  (37)
-7.736229419708252

>  <smiles>  (37)
c1ccc(Nc2ncncc2Oc2ccncc2)nc1

$$$$

     RDKit          3D

 37 39  0  0  0  0  0  0  0  0999 V2000
   26.4100    7.0420   -8.4410 C   0  0  0  0  0  0  0  0  0  0  0  0
   27.2790    7.0750   -9.5230 N   0  0  0  0  0  0  0  0  0  0  0  0
   27.6670    8.2920  -10.0670 C   0  0  0  0  0  0  0  0  0  0  0  0
   28.5060    7.9700  -11.0990 N   0  0  0  0  0  0  0  0  0  0  0  0
   25.9320    8.2270   -7.8980 N   0  0  0  0  0  0  0  0  0  0  0  0
   26.3180    9.4460   -8.4400 C   0  0  0  0  0  0  0  0  0  0  0  0
   27.1880    9.4800   -9.5250 C   0  0  0  0  0  0  0  0  0  0  0  0
   29.0830    9.1060  -11.8080 C   0  0  0  0  0  0  0  0  0  0  0  0
   30.4340    9.2270  -12.1180 N   0  0  0  0  0  0  0  0  0  0  0  0
   30.8920   10.3480  -12.8010 C   0  0  0  0  0  0  0  0  0  0  0  0
   30.0020   11.3480  -13.1720 C   0  0  0  0  0  0  0  0  0  0  0  0
   28.6530   11.2290  -12.8610 C   0  0  0  0  0  0  0  0  0  0  0  0
   28.1900   10.0910  -12.2030 C   0  0  0  0  0  0  0  0  0  0  0  0
   27.5750   10.6870  -10.0600 O   0  0  0  0  0  0  0  0  0  0  0  0
   27.1510   11.8380   -9.5940 C   0  0  0  0  0  0  0  0  0  0  0  0
   28.0040   12.7070   -8.9240 C   0  0  0  0  0  0  0  0  0  0  0  0
   27.5210   13.9100   -8.4240 C   0  0  0  0  0  0  0  0  0  0  0  0
   26.1820   14.2440   -8.5950 C   0  0  0  0  0  0  0  0  0  0  0  0
   25.3270   13.3750   -9.2640 N   0  0  0  0  0  0  0  0  0  0  0  0
   25.8140   12.1710   -9.7640 C   0  0  0  0  0  0  0  0  0  0  0  0
   27.6910   12.3300  -13.2350 C   0  0  1  0  0  0  0  0  0  0  0  0
   25.6560   15.5500   -8.0530 C   0  0  1  0  0  0  0  0  0  0  0  0
   26.1001    6.0769   -8.0138 H   0  0  0  0  0  0  0  0  0  0  0  0
   28.7150    6.9949  -11.3565 H   0  0  0  0  0  0  0  0  0  0  0  0
   25.9359   10.3843   -8.0115 H   0  0  0  0  0  0  0  0  0  0  0  0
   31.9597   10.4431  -13.0478 H   0  0  0  0  0  0  0  0  0  0  0  0
   30.3654   12.2346  -13.7123 H   0  0  0  0  0  0  0  0  0  0  0  0
   27.1159    9.9740  -11.9968 H   0  0  0  0  0  0  0  0  0  0  0  0
   29.0631   12.4420   -8.7894 H   0  0  0  0  0  0  0  0  0  0  0  0
   28.1968   14.5971   -7.8937 H   0  0  0  0  0  0  0  0  0  0  0  0
   25.1392   11.4828  -10.2942 H   0  0  0  0  0  0  0  0  0  0  0  0
   27.2882   12.7910  -12.3211 H   0  0  0  0  0  0  0  0  0  0  0  0
   28.2182   13.0917  -13.8282 H   0  0  0  0  0  0  0  0  0  0  0  0
   26.8655   11.9098  -13.8282 H   0  0  0  0  0  0  0  0  0  0  0  0
   25.6674   15.5218   -6.9534 H   0  0  0  0  0  0  0  0  0  0  0  0
   26.2917   16.3758   -8.4052 H   0  0  0  0  0  0  0  0  0  0  0  0
   24.6255   15.7047   -8.4052 H   0  0  0  0  0  0  0  0  0  0  0  0
  1  2  2  0
  1  5  1  0
  2  3  1  0
  3  4  1  0
  3  7  2  0
  5  6  2  0
  6  7  1  0
  7 14  1  0
  4  8  1  0
  8 13  1  0
  8  9  2  0
  9 10  1  0
 10 11  2  0
 11 12  1  0
 12 21  1  0
 12 13  2  0
 14 15  1  0
 15 20  1  0
 15 16  2  0
 16 17  1  0
 17 18  2  0
 18 19  1  0
 18 22  1  0
 19 20  2  0
  1 23  1  0
  4 24  1  0
  6 25  1  0
 10 26  1  0
 11 27  1  0
 13 28  1  0
 16 29  1  0
 17 30  1  0
 20 31  1  0
 21 32  1  1
 21 33  1  0
 21 34  1  0
 22 35  1  1
 22 36  1  0
 22 37  1  0
M  END
>  <Pose ID>  (38)
83

>  <Score>  (38)
-7.719579219818115

>  <smiles>  (38)
Cc1ccnc(Nc2ncncc2Oc2ccc(C)nc2)c1

$$$$

     RDKit          3D

 38 40  0  0  0  0  0  0  0  0999 V2000
   26.4080    7.0420   -8.4390 C   0  0  0  0  0  0  0  0  0  0  0  0
   27.2830    7.0740   -9.5170 N   0  0  0  0  0  0  0  0  0  0  0  0
   27.6720    8.2920  -10.0590 C   0  0  0  0  0  0  0  0  0  0  0  0
   28.5180    7.9680  -11.0860 N   0  0  0  0  0  0  0  0  0  0  0  0
   25.9230    8.2270   -7.9040 N   0  0  0  0  0  0  0  0  0  0  0  0
   26.3110    9.4470   -8.4450 C   0  0  0  0  0  0  0  0  0  0  0  0
   27.1890    9.4790   -9.5240 C   0  0  0  0  0  0  0  0  0  0  0  0
   29.1000    9.1020  -11.7930 C   0  0  0  0  0  0  0  0  0  0  0  0
   30.4510    9.2260  -12.0950 N   0  0  0  0  0  0  0  0  0  0  0  0
   30.9120   10.3460  -12.7780 C   0  0  0  0  0  0  0  0  0  0  0  0
   30.0220   11.3430  -13.1570 C   0  0  0  0  0  0  0  0  0  0  0  0
   28.6710   11.2230  -12.8550 C   0  0  0  0  0  0  0  0  0  0  0  0
   28.2070   10.0860  -12.1970 C   0  0  0  0  0  0  0  0  0  0  0  0
   27.5760   10.6870  -10.0610 O   0  0  0  0  0  0  0  0  0  0  0  0
   27.1540   11.8340   -9.5860 C   0  0  0  0  0  0  0  0  0  0  0  0
   27.9970   12.7180   -8.9250 C   0  0  0  0  0  0  0  0  0  0  0  0
   27.5010   13.9200   -8.4370 C   0  0  0  0  0  0  0  0  0  0  0  0
   26.1590   14.2390   -8.6110 C   0  0  0  0  0  0  0  0  0  0  0  0
   25.3140   13.3540   -9.2710 C   0  0  0  0  0  0  0  0  0  0  0  0
   25.7960   12.1680   -9.7940 C   0  0  0  0  0  0  0  0  0  0  0  0
   25.6190   15.5460   -8.0830 C   0  0  1  0  0  0  0  0  0  0  0  0
   24.1990   15.4330   -7.6040 C   0  0  1  0  0  0  0  0  0  0  0  0
   26.0995    6.0775   -8.0093 H   0  0  0  0  0  0  0  0  0  0  0  0
   28.7281    6.9924  -11.3407 H   0  0  0  0  0  0  0  0  0  0  0  0
   25.9247   10.3856   -8.0210 H   0  0  0  0  0  0  0  0  0  0  0  0
   31.9811   10.4425  -13.0181 H   0  0  0  0  0  0  0  0  0  0  0  0
   30.3873   12.2289  -13.6971 H   0  0  0  0  0  0  0  0  0  0  0  0
   27.9700   12.0233  -13.1346 H   0  0  0  0  0  0  0  0  0  0  0  0
   27.1318    9.9675  -11.9972 H   0  0  0  0  0  0  0  0  0  0  0  0
   29.0589   12.4658   -8.7878 H   0  0  0  0  0  0  0  0  0  0  0  0
   28.1695   14.6191   -7.9132 H   0  0  0  0  0  0  0  0  0  0  0  0
   24.2474   13.6005   -9.3787 H   0  0  0  0  0  0  0  0  0  0  0  0
   25.1348   11.4966  -10.3616 H   0  0  0  0  0  0  0  0  0  0  0  0
   26.2491   15.8740   -7.2431 H   0  0  0  0  0  0  0  0  0  0  0  0
   25.6351   16.2715   -8.9097 H   0  0  0  0  0  0  0  0  0  0  0  0
   24.1821   15.4317   -6.5041 H   0  0  0  0  0  0  0  0  0  0  0  0
   23.6166   16.2876   -7.9786 H   0  0  0  0  0  0  0  0  0  0  0  0
   23.7590   14.4970   -7.9786 H   0  0  0  0  0  0  0  0  0  0  0  0
  1  2  2  0
  1  5  1  0
  2  3  1  0
  3  4  1  0
  3  7  2  0
  5  6  2  0
  6  7  1  0
  7 14  1  0
  4  8  1  0
  8 13  1  0
  8  9  2  0
  9 10  1  0
 10 11  2  0
 11 12  1  0
 12 13  2  0
 14 15  1  0
 15 20  1  0
 15 16  2  0
 16 17  1  0
 17 18  2  0
 18 19  1  0
 18 21  1  0
 19 20  2  0
 21 22  1  0
  1 23  1  0
  4 24  1  0
  6 25  1  0
 10 26  1  0
 11 27  1  0
 12 28  1  0
 13 29  1  0
 16 30  1  0
 17 31  1  0
 19 32  1  0
 20 33  1  0
 21 34  1  1
 21 35  1  0
 22 36  1  1
 22 37  1  0
 22 38  1  0
M  END
>  <Pose ID>  (39)
115

>  <Score>  (39)
-7.708560943603516

>  <smiles>  (39)
CCc1ccc(Oc2cncnc2Nc2ccccn2)cc1

$$$$

     RDKit          3D

 41 43  0  0  0  0  0  0  0  0999 V2000
   26.4100    7.0420   -8.4330 C   0  0  0  0  0  0  0  0  0  0  0  0
   27.2520    7.0940   -9.5360 N   0  0  0  0  0  0  0  0  0  0  0  0
   27.6340    8.3210  -10.0620 C   0  0  0  0  0  0  0  0  0  0  0  0
   28.4460    8.0160  -11.1200 N   0  0  0  0  0  0  0  0  0  0  0  0
   25.9490    8.2180   -7.8560 N   0  0  0  0  0  0  0  0  0  0  0  0
   26.3300    9.4460   -8.3800 C   0  0  0  0  0  0  0  0  0  0  0  0
   27.1750    9.4990   -9.4840 C   0  0  0  0  0  0  0  0  0  0  0  0
   29.0140    9.1630  -11.8190 C   0  0  0  0  0  0  0  0  0  0  0  0
   30.3570    9.2860  -12.1580 N   0  0  0  0  0  0  0  0  0  0  0  0
   30.8040   10.4190  -12.8270 C   0  0  0  0  0  0  0  0  0  0  0  0
   29.9120   11.4290  -13.1560 C   0  0  0  0  0  0  0  0  0  0  0  0
   28.5690   11.3110  -12.8160 C   0  0  0  0  0  0  0  0  0  0  0  0
   28.1170   10.1620  -12.1720 C   0  0  0  0  0  0  0  0  0  0  0  0
   27.5540   10.7170  -10.0040 O   0  0  0  0  0  0  0  0  0  0  0  0
   27.1560   11.8550   -9.4900 C   0  0  0  0  0  0  0  0  0  0  0  0
   28.0250   12.7170   -8.8340 C   0  0  0  0  0  0  0  0  0  0  0  0
   27.5510   13.9110   -8.3030 C   0  0  0  0  0  0  0  0  0  0  0  0
   26.2070   14.2430   -8.4290 C   0  0  0  0  0  0  0  0  0  0  0  0
   25.3360   13.3780   -9.0840 C   0  0  0  0  0  0  0  0  0  0  0  0
   25.7940   12.2020   -9.6480 C   0  0  0  0  0  0  0  0  0  0  0  0
   27.6040   12.4240  -13.1450 C   0  0  1  0  0  0  0  0  0  0  0  0
   25.6930   15.5400   -7.8550 C   0  0  1  0  0  0  0  0  0  0  0  0
   23.8720   13.7290   -9.1800 C   0  0  1  0  0  0  0  0  0  0  0  0
   26.1083    6.0696   -8.0165 H   0  0  0  0  0  0  0  0  0  0  0  0
   28.6422    7.0452  -11.4028 H   0  0  0  0  0  0  0  0  0  0  0  0
   25.9638   10.3768   -7.9224 H   0  0  0  0  0  0  0  0  0  0  0  0
   31.8663   10.5150  -13.0959 H   0  0  0  0  0  0  0  0  0  0  0  0
   30.2676   12.3245  -13.6866 H   0  0  0  0  0  0  0  0  0  0  0  0
   27.0475   10.0458  -11.9426 H   0  0  0  0  0  0  0  0  0  0  0  0
   29.0887   12.4549   -8.7346 H   0  0  0  0  0  0  0  0  0  0  0  0
   28.2395   14.5933   -7.7830 H   0  0  0  0  0  0  0  0  0  0  0  0
   25.1112   11.5476  -10.2098 H   0  0  0  0  0  0  0  0  0  0  0  0
   27.2215   12.8652  -12.2128 H   0  0  0  0  0  0  0  0  0  0  0  0
   28.1222   13.1973  -13.7310 H   0  0  0  0  0  0  0  0  0  0  0  0
   26.7650   12.0206  -13.7310 H   0  0  0  0  0  0  0  0  0  0  0  0
   25.7135   15.4884   -6.7564 H   0  0  0  0  0  0  0  0  0  0  0  0
   26.3304   16.3696   -8.1950 H   0  0  0  0  0  0  0  0  0  0  0  0
   24.6604   15.7078   -8.1950 H   0  0  0  0  0  0  0  0  0  0  0  0
   23.4520   13.8297   -8.1683 H   0  0  0  0  0  0  0  0  0  0  0  0
   23.7576   14.6800   -9.7208 H   0  0  0  0  0  0  0  0  0  0  0  0
   23.3388   12.9332   -9.7208 H   0  0  0  0  0  0  0  0  0  0  0  0
  1  2  2  0
  1  5  1  0
  2  3  1  0
  3  4  1  0
  3  7  2  0
  5  6  2  0
  6  7  1  0
  7 14  1  0
  4  8  1  0
  8 13  1  0
  8  9  2  0
  9 10  1  0
 10 11  2  0
 11 12  1  0
 12 21  1  0
 12 13  2  0
 14 15  1  0
 15 20  1  0
 15 16  2  0
 16 17  1  0
 17 18  2  0
 18 19  1  0
 18 22  1  0
 19 20  2  0
 19 23  1  0
  1 24  1  0
  4 25  1  0
  6 26  1  0
 10 27  1  0
 11 28  1  0
 13 29  1  0
 16 30  1  0
 17 31  1  0
 20 32  1  0
 21 33  1  1
 21 34  1  0
 21 35  1  0
 22 36  1  1
 22 37  1  0
 22 38  1  0
 23 39  1  1
 23 40  1  0
 23 41  1  0
M  END
>  <Pose ID>  (40)
113

>  <Score>  (40)
-7.708412170410156

>  <smiles>  (40)
Cc1ccnc(Nc2ncncc2Oc2ccc(C)c(C)c2)c1

$$$$

     RDKit          3D

 34 37  0  0  0  0  0  0  0  0999 V2000
   27.5000    7.9820  -10.0670 C   0  0  0  0  0  0  0  0  0  0  0  0
   27.1600    7.0450   -9.1230 N   0  0  0  0  0  0  0  0  0  0  0  0
   26.6330    7.4240   -7.9320 C   0  0  0  0  0  0  0  0  0  0  0  0
   28.0880    7.9230  -11.3220 C   0  0  0  0  0  0  0  0  0  0  0  0
   28.2790    9.0870  -12.0560 C   0  0  0  0  0  0  0  0  0  0  0  0
   27.8810   10.3110  -11.5340 C   0  0  0  0  0  0  0  0  0  0  0  0
   27.2900   10.3690  -10.2750 C   0  0  0  0  0  0  0  0  0  0  0  0
   27.1000    9.2070   -9.5430 C   0  0  0  0  0  0  0  0  0  0  0  0
   26.5900    8.8470   -8.0330 O   0  0  0  0  0  0  0  0  0  0  0  0
   28.0750   11.4910  -12.2750 C   0  0  0  0  0  0  0  0  0  0  0  0
   27.1890   12.4550  -12.4560 N   0  0  0  0  0  0  0  0  0  0  0  0
   27.7460   13.4390  -13.1060 N   0  0  0  0  0  0  0  0  0  0  0  0
   28.9660   13.1860  -13.3550 C   0  0  0  0  0  0  0  0  0  0  0  0
   29.2080   11.9170  -12.8470 N   0  0  0  0  0  0  0  0  0  0  0  0
   30.4620   11.3350  -12.9970 C   0  0  0  0  0  0  0  0  0  0  0  0
   31.4730   12.0240  -13.6570 C   0  0  0  0  0  0  0  0  0  0  0  0
   31.2290   13.2930  -14.1680 N   0  0  0  0  0  0  0  0  0  0  0  0
   29.9760   13.8750  -14.0160 C   0  0  0  0  0  0  0  0  0  0  0  0
   26.8540   11.6990   -9.7050 C   0  0  1  0  0  0  0  0  0  0  0  0
   25.3370   11.8730   -9.9350 C   0  0  1  0  0  0  0  0  0  0  0  0
   27.1100   11.7510   -8.1960 C   0  0  1  0  0  0  0  0  0  0  0  0
   26.3157    6.7887   -7.0920 H   0  0  0  0  0  0  0  0  0  0  0  0
   28.4032    6.9540  -11.7363 H   0  0  0  0  0  0  0  0  0  0  0  0
   28.7456    9.0392  -13.0510 H   0  0  0  0  0  0  0  0  0  0  0  0
   30.6539   10.3298  -12.5936 H   0  0  0  0  0  0  0  0  0  0  0  0
   32.4657   11.5649  -13.7747 H   0  0  0  0  0  0  0  0  0  0  0  0
   29.7838   14.8804  -14.4187 H   0  0  0  0  0  0  0  0  0  0  0  0
   27.4260   12.4954  -10.2036 H   0  0  0  0  0  0  0  0  0  0  0  0
   24.8233   11.9319   -8.9641 H   0  0  0  0  0  0  0  0  0  0  0  0
   25.1559   12.7978  -10.5024 H   0  0  0  0  0  0  0  0  0  0  0  0
   24.9512   11.0132  -10.5024 H   0  0  0  0  0  0  0  0  0  0  0  0
   26.1699   11.5600   -7.6578 H   0  0  0  0  0  0  0  0  0  0  0  0
   27.8508   10.9850   -7.9232 H   0  0  0  0  0  0  0  0  0  0  0  0
   27.4932   12.7453   -7.9232 H   0  0  0  0  0  0  0  0  0  0  0  0
  1  4  2  0
  1  8  1  0
  1  2  1  0
  2  3  2  0
  3  9  1  0
  4  5  1  0
  5  6  2  0
  6 10  1  0
  6  7  1  0
  7 19  1  0
  7  8  2  0
  8  9  1  0
 10 14  1  0
 10 11  2  0
 11 12  1  0
 12 13  2  0
 13 18  1  0
 13 14  1  0
 14 15  1  0
 15 16  2  0
 16 17  1  0
 17 18  2  0
 19 20  1  0
 19 21  1  0
  3 22  1  0
  4 23  1  0
  5 24  1  0
 15 25  1  0
 16 26  1  0
 18 27  1  0
 19 28  1  6
 20 29  1  1
 20 30  1  0
 20 31  1  0
 21 32  1  1
 21 33  1  0
 21 34  1  0
M  END
>  <Pose ID>  (41)
122

>  <Score>  (41)
-7.705419540405273

>  <smiles>  (41)
CC(C)c1c(-c2nnc3cnccn23)ccc2ncoc12

$$$$

     RDKit          3D

 38 40  0  0  0  0  0  0  0  0999 V2000
   26.4110    7.0420   -8.4410 C   0  0  0  0  0  0  0  0  0  0  0  0
   27.2770    7.0700   -9.5260 N   0  0  0  0  0  0  0  0  0  0  0  0
   27.6740    8.2860  -10.0670 C   0  0  0  0  0  0  0  0  0  0  0  0
   28.5070    7.9580  -11.1020 N   0  0  0  0  0  0  0  0  0  0  0  0
   25.9430    8.2300   -7.8960 N   0  0  0  0  0  0  0  0  0  0  0  0
   26.3390    9.4470   -8.4350 C   0  0  0  0  0  0  0  0  0  0  0  0
   27.2070    9.4760   -9.5220 C   0  0  0  0  0  0  0  0  0  0  0  0
   29.0940    9.0900  -11.8100 C   0  0  0  0  0  0  0  0  0  0  0  0
   30.4440    9.2020  -12.1230 N   0  0  0  0  0  0  0  0  0  0  0  0
   30.9100   10.3200  -12.8040 C   0  0  0  0  0  0  0  0  0  0  0  0
   30.0280   11.3270  -13.1710 C   0  0  0  0  0  0  0  0  0  0  0  0
   28.6780   11.2200  -12.8570 C   0  0  0  0  0  0  0  0  0  0  0  0
   28.2080   10.0850  -12.2010 C   0  0  0  0  0  0  0  0  0  0  0  0
   27.6020   10.6830  -10.0560 O   0  0  0  0  0  0  0  0  0  0  0  0
   27.1970   11.8310   -9.5730 C   0  0  0  0  0  0  0  0  0  0  0  0
   28.0550   12.7030   -8.9150 C   0  0  0  0  0  0  0  0  0  0  0  0
   27.5750   13.9080   -8.4170 C   0  0  0  0  0  0  0  0  0  0  0  0
   26.2350   14.2420   -8.5770 C   0  0  0  0  0  0  0  0  0  0  0  0
   25.3750   13.3680   -9.2340 C   0  0  0  0  0  0  0  0  0  0  0  0
   25.8400   12.1800   -9.7660 C   0  0  0  0  0  0  0  0  0  0  0  0
   27.7240   12.3290  -13.2270 C   0  0  1  0  0  0  0  0  0  0  0  0
   25.7140   15.5520   -8.0390 C   0  0  1  0  0  0  0  0  0  0  0  0
   26.0958    6.0788   -8.0134 H   0  0  0  0  0  0  0  0  0  0  0  0
   28.7053    6.9814  -11.3624 H   0  0  0  0  0  0  0  0  0  0  0  0
   25.9667   10.3875   -8.0028 H   0  0  0  0  0  0  0  0  0  0  0  0
   31.9781   10.4070  -13.0523 H   0  0  0  0  0  0  0  0  0  0  0  0
   30.3978   12.2110  -13.7111 H   0  0  0  0  0  0  0  0  0  0  0  0
   27.1334    9.9766  -11.9923 H   0  0  0  0  0  0  0  0  0  0  0  0
   29.1154   12.4393   -8.7881 H   0  0  0  0  0  0  0  0  0  0  0  0
   28.2553   14.5978   -7.8961 H   0  0  0  0  0  0  0  0  0  0  0  0
   24.3101   13.6259   -9.3315 H   0  0  0  0  0  0  0  0  0  0  0  0
   25.1665   11.5176  -10.3296 H   0  0  0  0  0  0  0  0  0  0  0  0
   27.3263   12.7913  -12.3115 H   0  0  0  0  0  0  0  0  0  0  0  0
   28.2560   13.0878  -13.8196 H   0  0  0  0  0  0  0  0  0  0  0  0
   26.8942   11.9164  -13.8196 H   0  0  0  0  0  0  0  0  0  0  0  0
   25.7240   15.5267   -6.9393 H   0  0  0  0  0  0  0  0  0  0  0  0
   26.3536   16.3740   -8.3927 H   0  0  0  0  0  0  0  0  0  0  0  0
   24.6845   15.7102   -8.3927 H   0  0  0  0  0  0  0  0  0  0  0  0
  1  2  2  0
  1  5  1  0
  2  3  1  0
  3  4  1  0
  3  7  2  0
  5  6  2  0
  6  7  1  0
  7 14  1  0
  4  8  1  0
  8 13  1  0
  8  9  2  0
  9 10  1  0
 10 11  2  0
 11 12  1  0
 12 21  1  0
 12 13  2  0
 14 15  1  0
 15 20  1  0
 15 16  2  0
 16 17  1  0
 17 18  2  0
 18 19  1  0
 18 22  1  0
 19 20  2  0
  1 23  1  0
  4 24  1  0
  6 25  1  0
 10 26  1  0
 11 27  1  0
 13 28  1  0
 16 29  1  0
 17 30  1  0
 19 31  1  0
 20 32  1  0
 21 33  1  1
 21 34  1  0
 21 35  1  0
 22 36  1  1
 22 37  1  0
 22 38  1  0
M  END
>  <Pose ID>  (42)
108

>  <Score>  (42)
-7.688154220581055

>  <smiles>  (42)
Cc1ccc(Oc2cncnc2Nc2cc(C)ccn2)cc1

$$$$

     RDKit          3D

 37 39  0  0  0  0  0  0  0  0999 V2000
   26.4020    7.0420   -8.4420 C   0  0  0  0  0  0  0  0  0  0  0  0
   27.2710    7.0790   -9.5240 N   0  0  0  0  0  0  0  0  0  0  0  0
   27.6450    8.3000  -10.0730 C   0  0  0  0  0  0  0  0  0  0  0  0
   28.4890    7.9820  -11.1050 N   0  0  0  0  0  0  0  0  0  0  0  0
   25.9100    8.2220   -7.9040 N   0  0  0  0  0  0  0  0  0  0  0  0
   26.2840    9.4440   -8.4520 C   0  0  0  0  0  0  0  0  0  0  0  0
   27.1540    9.4840   -9.5360 C   0  0  0  0  0  0  0  0  0  0  0  0
   29.0540    9.1230  -11.8180 C   0  0  0  0  0  0  0  0  0  0  0  0
   30.4020    9.2580  -12.1280 N   0  0  0  0  0  0  0  0  0  0  0  0
   30.8470   10.3810  -12.8150 C   0  0  0  0  0  0  0  0  0  0  0  0
   29.9460   11.3680  -13.1910 C   0  0  0  0  0  0  0  0  0  0  0  0
   28.5990   11.2350  -12.8800 C   0  0  0  0  0  0  0  0  0  0  0  0
   28.1490   10.0950  -12.2180 C   0  0  0  0  0  0  0  0  0  0  0  0
   27.5270   10.6940  -10.0760 O   0  0  0  0  0  0  0  0  0  0  0  0
   27.0710   11.8100   -9.5480 C   0  0  0  0  0  0  0  0  0  0  0  0
   27.9460   12.7230   -8.9700 C   0  0  0  0  0  0  0  0  0  0  0  0
   27.4650   13.9330   -8.4860 C   0  0  0  0  0  0  0  0  0  0  0  0
   26.1110   14.2300   -8.5800 N   0  0  0  0  0  0  0  0  0  0  0  0
   25.2370   13.3170   -9.1570 C   0  0  0  0  0  0  0  0  0  0  0  0
   25.7170   12.1060   -9.6410 C   0  0  0  0  0  0  0  0  0  0  0  0
   27.6230   12.3220  -13.2590 C   0  0  1  0  0  0  0  0  0  0  0  0
   28.0050   13.7290  -12.8150 C   0  0  1  0  0  0  0  0  0  0  0  0
   26.1031    6.0753   -8.0106 H   0  0  0  0  0  0  0  0  0  0  0  0
   28.7086    7.0082  -11.3589 H   0  0  0  0  0  0  0  0  0  0  0  0
   25.8913   10.3798   -8.0277 H   0  0  0  0  0  0  0  0  0  0  0  0
   31.9138   10.4880  -13.0610 H   0  0  0  0  0  0  0  0  0  0  0  0
   30.2992   12.2560  -13.7356 H   0  0  0  0  0  0  0  0  0  0  0  0
   27.0761    9.9657  -12.0125 H   0  0  0  0  0  0  0  0  0  0  0  0
   29.0179   12.4874   -8.8961 H   0  0  0  0  0  0  0  0  0  0  0  0
   28.1562   14.6561   -8.0283 H   0  0  0  0  0  0  0  0  0  0  0  0
   24.1651   13.5527   -9.2307 H   0  0  0  0  0  0  0  0  0  0  0  0
   25.0254   11.3825  -10.0973 H   0  0  0  0  0  0  0  0  0  0  0  0
   27.5287   12.3261  -14.3549 H   0  0  0  0  0  0  0  0  0  0  0  0
   26.6858   12.0833  -12.7349 H   0  0  0  0  0  0  0  0  0  0  0  0
   28.0177   13.7759  -11.7161 H   0  0  0  0  0  0  0  0  0  0  0  0
   29.0033   13.9780  -13.2042 H   0  0  0  0  0  0  0  0  0  0  0  0
   27.2697   14.4486  -13.2042 H   0  0  0  0  0  0  0  0  0  0  0  0
  1  2  2  0
  1  5  1  0
  2  3  1  0
  3  4  1  0
  3  7  2  0
  5  6  2  0
  6  7  1  0
  7 14  1  0
  4  8  1  0
  8 13  1  0
  8  9  2  0
  9 10  1  0
 10 11  2  0
 11 12  1  0
 12 21  1  0
 12 13  2  0
 21 22  1  0
 14 15  1  0
 15 20  1  0
 15 16  2  0
 16 17  1  0
 17 18  2  0
 18 19  1  0
 19 20  2  0
  1 23  1  0
  4 24  1  0
  6 25  1  0
 10 26  1  0
 11 27  1  0
 13 28  1  0
 16 29  1  0
 17 30  1  0
 19 31  1  0
 20 32  1  0
 21 33  1  6
 21 34  1  0
 22 35  1  1
 22 36  1  0
 22 37  1  0
M  END
>  <Pose ID>  (43)
72

>  <Score>  (43)
-7.680341720581055

>  <smiles>  (43)
CCc1ccnc(Nc2ncncc2Oc2ccncc2)c1

$$$$

     RDKit          3D

 40 42  0  0  0  0  0  0  0  0999 V2000
   26.4470    7.0420   -8.4160 C   0  0  0  0  0  0  0  0  0  0  0  0
   27.2770    7.2070   -9.5170 N   0  0  0  0  0  0  0  0  0  0  0  0
   27.4660    8.4700  -10.0630 C   0  0  0  0  0  0  0  0  0  0  0  0
   28.3190    8.2790  -11.1150 N   0  0  0  0  0  0  0  0  0  0  0  0
   25.8110    8.1400   -7.8550 N   0  0  0  0  0  0  0  0  0  0  0  0
   25.9980    9.4050   -8.3980 C   0  0  0  0  0  0  0  0  0  0  0  0
   26.8270    9.5720   -9.5030 C   0  0  0  0  0  0  0  0  0  0  0  0
   28.7030    9.4910  -11.8300 C   0  0  0  0  0  0  0  0  0  0  0  0
   30.0120    9.8140  -12.1710 N   0  0  0  0  0  0  0  0  0  0  0  0
   30.2800   10.9920  -12.8580 C   0  0  0  0  0  0  0  0  0  0  0  0
   29.2430   11.8470  -13.2020 C   0  0  0  0  0  0  0  0  0  0  0  0
   27.9340   11.5280  -12.8620 C   0  0  0  0  0  0  0  0  0  0  0  0
   27.6620   10.3310  -12.1990 C   0  0  0  0  0  0  0  0  0  0  0  0
   27.0160   10.8250  -10.0410 O   0  0  0  0  0  0  0  0  0  0  0  0
   26.4350   11.8980   -9.5580 C   0  0  0  0  0  0  0  0  0  0  0  0
   27.1630   12.8830   -8.9030 C   0  0  0  0  0  0  0  0  0  0  0  0
   26.5160   13.9990   -8.3860 C   0  0  0  0  0  0  0  0  0  0  0  0
   25.1390   14.1290   -8.5240 C   0  0  0  0  0  0  0  0  0  0  0  0
   24.4090   13.1430   -9.1790 N   0  0  0  0  0  0  0  0  0  0  0  0
   25.0580   12.0270   -9.6970 C   0  0  0  0  0  0  0  0  0  0  0  0
   24.4360   15.3390   -7.9630 C   0  0  1  0  0  0  0  0  0  0  0  0
   24.1120   16.2430   -9.1330 C   0  0  1  0  0  0  0  0  0  0  0  0
   28.6570   12.7400   -8.7510 C   0  0  1  0  0  0  0  0  0  0  0  0
   26.2937    6.0402   -7.9884 H   0  0  0  0  0  0  0  0  0  0  0  0
   28.6652    7.3467  -11.3830 H   0  0  0  0  0  0  0  0  0  0  0  0
   25.4908   10.2745   -7.9545 H   0  0  0  0  0  0  0  0  0  0  0  0
   31.3152   11.2467  -13.1292 H   0  0  0  0  0  0  0  0  0  0  0  0
   29.4574   12.7793  -13.7450 H   0  0  0  0  0  0  0  0  0  0  0  0
   27.1147   12.2171  -13.1148 H   0  0  0  0  0  0  0  0  0  0  0  0
   26.6228   10.0532  -11.9689 H   0  0  0  0  0  0  0  0  0  0  0  0
   27.0932   14.7790   -7.8679 H   0  0  0  0  0  0  0  0  0  0  0  0
   24.4818   11.2470  -10.2163 H   0  0  0  0  0  0  0  0  0  0  0  0
   23.5103   15.0354   -7.4523 H   0  0  0  0  0  0  0  0  0  0  0  0
   25.0709   15.8576   -7.2296 H   0  0  0  0  0  0  0  0  0  0  0  0
   23.7630   17.2166   -8.7585 H   0  0  0  0  0  0  0  0  0  0  0  0
   25.0142   16.3877   -9.7454 H   0  0  0  0  0  0  0  0  0  0  0  0
   23.3233   15.7816   -9.7454 H   0  0  0  0  0  0  0  0  0  0  0  0
   28.9161   12.7152   -7.6822 H   0  0  0  0  0  0  0  0  0  0  0  0
   28.9866   11.8062   -9.2300 H   0  0  0  0  0  0  0  0  0  0  0  0
   29.1577   13.5943   -9.2300 H   0  0  0  0  0  0  0  0  0  0  0  0
  1  2  2  0
  1  5  1  0
  2  3  1  0
  3  4  1  0
  3  7  2  0
  5  6  2  0
  6  7  1  0
  7 14  1  0
  4  8  1  0
  8 13  1  0
  8  9  2  0
  9 10  1  0
 10 11  2  0
 11 12  1  0
 12 13  2  0
 14 15  1  0
 15 20  1  0
 15 16  2  0
 16 23  1  0
 16 17  1  0
 17 18  2  0
 18 19  1  0
 18 21  1  0
 19 20  2  0
 21 22  1  0
  1 24  1  0
  4 25  1  0
  6 26  1  0
 10 27  1  0
 11 28  1  0
 12 29  1  0
 13 30  1  0
 17 31  1  0
 20 32  1  0
 21 33  1  1
 21 34  1  0
 22 35  1  1
 22 36  1  0
 22 37  1  0
 23 38  1  1
 23 39  1  0
 23 40  1  0
M  END
>  <Pose ID>  (44)
100

>  <Score>  (44)
-7.653538703918457

>  <smiles>  (44)
CCc1cc(C)c(Oc2cncnc2Nc2ccccn2)cn1

$$$$

     RDKit          3D

 40 42  0  0  0  0  0  0  0  0999 V2000
   26.4050    7.0420   -8.4420 C   0  0  0  0  0  0  0  0  0  0  0  0
   27.2900    7.0900   -9.5110 N   0  0  0  0  0  0  0  0  0  0  0  0
   27.6800    8.3140  -10.0380 C   0  0  0  0  0  0  0  0  0  0  0  0
   28.5340    8.0070  -11.0610 N   0  0  0  0  0  0  0  0  0  0  0  0
   25.9140    8.2190   -7.8940 N   0  0  0  0  0  0  0  0  0  0  0  0
   26.3020    9.4450   -8.4170 C   0  0  0  0  0  0  0  0  0  0  0  0
   27.1870    9.4950   -9.4900 C   0  0  0  0  0  0  0  0  0  0  0  0
   29.1160    9.1530  -11.7500 C   0  0  0  0  0  0  0  0  0  0  0  0
   30.4690    9.2840  -12.0400 N   0  0  0  0  0  0  0  0  0  0  0  0
   30.9300   10.4140  -12.7060 C   0  0  0  0  0  0  0  0  0  0  0  0
   30.0410   11.4120  -13.0790 C   0  0  0  0  0  0  0  0  0  0  0  0
   28.6880   11.2840  -12.7890 C   0  0  0  0  0  0  0  0  0  0  0  0
   28.2220   10.1370  -12.1470 C   0  0  0  0  0  0  0  0  0  0  0  0
   27.5750   10.7090  -10.0090 O   0  0  0  0  0  0  0  0  0  0  0  0
   27.1390   11.8540   -9.5360 C   0  0  0  0  0  0  0  0  0  0  0  0
   27.9770   12.7200   -8.8460 C   0  0  0  0  0  0  0  0  0  0  0  0
   27.4800   13.9150   -8.3420 C   0  0  0  0  0  0  0  0  0  0  0  0
   26.1430   14.2450   -8.5270 C   0  0  0  0  0  0  0  0  0  0  0  0
   25.3020   13.3780   -9.2180 N   0  0  0  0  0  0  0  0  0  0  0  0
   25.8010   12.1810   -9.7230 C   0  0  0  0  0  0  0  0  0  0  0  0
   25.6020   15.5420   -7.9800 C   0  0  1  0  0  0  0  0  0  0  0  0
   25.4560   16.4880   -9.1520 C   0  0  1  0  0  0  0  0  0  0  0  0
   30.5440   12.6370  -13.8010 C   0  0  1  0  0  0  0  0  0  0  0  0
   26.0930    6.0712   -8.0294 H   0  0  0  0  0  0  0  0  0  0  0  0
   28.7507    7.0356  -11.3260 H   0  0  0  0  0  0  0  0  0  0  0  0
   25.9100   10.3769   -7.9834 H   0  0  0  0  0  0  0  0  0  0  0  0
   32.0004   10.5170  -12.9374 H   0  0  0  0  0  0  0  0  0  0  0  0
   27.9865   12.0851  -13.0650 H   0  0  0  0  0  0  0  0  0  0  0  0
   27.1460   10.0125  -11.9554 H   0  0  0  0  0  0  0  0  0  0  0  0
   29.0354   12.4593   -8.6984 H   0  0  0  0  0  0  0  0  0  0  0  0
   28.1451   14.6004   -7.7962 H   0  0  0  0  0  0  0  0  0  0  0  0
   25.1375   11.4946  -10.2694 H   0  0  0  0  0  0  0  0  0  0  0  0
   24.6238   15.3736   -7.5060 H   0  0  0  0  0  0  0  0  0  0  0  0
   26.2775   15.9600   -7.2191 H   0  0  0  0  0  0  0  0  0  0  0  0
   25.2981   17.5111   -8.7800 H   0  0  0  0  0  0  0  0  0  0  0  0
   26.3695   16.4573   -9.7640 H   0  0  0  0  0  0  0  0  0  0  0  0
   24.5942   16.1833   -9.7640 H   0  0  0  0  0  0  0  0  0  0  0  0
   30.8548   13.3940  -13.0660 H   0  0  0  0  0  0  0  0  0  0  0  0
   31.4028   12.3640  -14.4318 H   0  0  0  0  0  0  0  0  0  0  0  0
   29.7412   13.0463  -14.4318 H   0  0  0  0  0  0  0  0  0  0  0  0
  1  2  2  0
  1  5  1  0
  2  3  1  0
  3  4  1  0
  3  7  2  0
  5  6  2  0
  6  7  1  0
  7 14  1  0
  4  8  1  0
  8 13  1  0
  8  9  2  0
  9 10  1  0
 10 11  2  0
 11 23  1  0
 11 12  1  0
 12 13  2  0
 14 15  1  0
 15 20  1  0
 15 16  2  0
 16 17  1  0
 17 18  2  0
 18 19  1  0
 18 21  1  0
 19 20  2  0
 21 22  1  0
  1 24  1  0
  4 25  1  0
  6 26  1  0
 10 27  1  0
 12 28  1  0
 13 29  1  0
 16 30  1  0
 17 31  1  0
 20 32  1  0
 21 33  1  1
 21 34  1  0
 22 35  1  1
 22 36  1  0
 22 37  1  0
 23 38  1  1
 23 39  1  0
 23 40  1  0
M  END
>  <Pose ID>  (45)
98

>  <Score>  (45)
-7.644837856292725

>  <smiles>  (45)
CCc1ccc(Oc2cncnc2Nc2ccc(C)cn2)cn1

$$$$

     RDKit          3D

 37 39  0  0  0  0  0  0  0  0999 V2000
   26.4020    7.0420   -8.4370 C   0  0  0  0  0  0  0  0  0  0  0  0
   27.2570    7.0950   -9.5310 N   0  0  0  0  0  0  0  0  0  0  0  0
   27.6260    8.3240  -10.0640 C   0  0  0  0  0  0  0  0  0  0  0  0
   28.4550    8.0210  -11.1130 N   0  0  0  0  0  0  0  0  0  0  0  0
   25.9190    8.2140   -7.8750 N   0  0  0  0  0  0  0  0  0  0  0  0
   26.2890    9.4440   -8.4070 C   0  0  0  0  0  0  0  0  0  0  0  0
   27.1450    9.5000   -9.5020 C   0  0  0  0  0  0  0  0  0  0  0  0
   29.0130    9.1720  -11.8150 C   0  0  0  0  0  0  0  0  0  0  0  0
   30.3570    9.3100  -12.1400 N   0  0  0  0  0  0  0  0  0  0  0  0
   30.7960   10.4430  -12.8150 C   0  0  0  0  0  0  0  0  0  0  0  0
   29.8930   11.4370  -13.1630 C   0  0  0  0  0  0  0  0  0  0  0  0
   28.5490   11.3020  -12.8360 C   0  0  0  0  0  0  0  0  0  0  0  0
   28.1060   10.1530  -12.1870 C   0  0  0  0  0  0  0  0  0  0  0  0
   27.5130   10.7180  -10.0270 O   0  0  0  0  0  0  0  0  0  0  0  0
   27.0660   11.8260   -9.4750 C   0  0  0  0  0  0  0  0  0  0  0  0
   27.9510   12.7270   -8.8940 C   0  0  0  0  0  0  0  0  0  0  0  0
   27.4790   13.9310   -8.3840 C   0  0  0  0  0  0  0  0  0  0  0  0
   26.1240   14.2320   -8.4550 N   0  0  0  0  0  0  0  0  0  0  0  0
   25.2410   13.3300   -9.0350 C   0  0  0  0  0  0  0  0  0  0  0  0
   25.7120   12.1260   -9.5450 C   0  0  0  0  0  0  0  0  0  0  0  0
   27.5710   12.3970  -13.1840 C   0  0  1  0  0  0  0  0  0  0  0  0
   23.7700   13.6580   -9.1130 C   0  0  1  0  0  0  0  0  0  0  0  0
   26.1079    6.0691   -8.0162 H   0  0  0  0  0  0  0  0  0  0  0  0
   28.6685    7.0510  -11.3858 H   0  0  0  0  0  0  0  0  0  0  0  0
   25.9046   10.3735   -7.9617 H   0  0  0  0  0  0  0  0  0  0  0  0
   31.8597   10.5515  -13.0733 H   0  0  0  0  0  0  0  0  0  0  0  0
   30.2411   12.3328  -13.6982 H   0  0  0  0  0  0  0  0  0  0  0  0
   27.0357   10.0230  -11.9690 H   0  0  0  0  0  0  0  0  0  0  0  0
   29.0232   12.4876   -8.8379 H   0  0  0  0  0  0  0  0  0  0  0  0
   28.1778   14.6454   -7.9243 H   0  0  0  0  0  0  0  0  0  0  0  0
   25.0128   11.4113  -10.0037 H   0  0  0  0  0  0  0  0  0  0  0  0
   27.1740   12.8415  -12.2594 H   0  0  0  0  0  0  0  0  0  0  0  0
   28.0829   13.1722  -13.7731 H   0  0  0  0  0  0  0  0  0  0  0  0
   26.7431   11.9756  -13.7731 H   0  0  0  0  0  0  0  0  0  0  0  0
   23.3603   13.7494   -8.0962 H   0  0  0  0  0  0  0  0  0  0  0  0
   23.6342   14.6085   -9.6498 H   0  0  0  0  0  0  0  0  0  0  0  0
   23.2433   12.8552   -9.6498 H   0  0  0  0  0  0  0  0  0  0  0  0
  1  2  2  0
  1  5  1  0
  2  3  1  0
  3  4  1  0
  3  7  2  0
  5  6  2  0
  6  7  1  0
  7 14  1  0
  4  8  1  0
  8 13  1  0
  8  9  2  0
  9 10  1  0
 10 11  2  0
 11 12  1  0
 12 21  1  0
 12 13  2  0
 14 15  1  0
 15 20  1  0
 15 16  2  0
 16 17  1  0
 17 18  2  0
 18 19  1  0
 19 20  2  0
 19 22  1  0
  1 23  1  0
  4 24  1  0
  6 25  1  0
 10 26  1  0
 11 27  1  0
 13 28  1  0
 16 29  1  0
 17 30  1  0
 20 31  1  0
 21 32  1  1
 21 33  1  0
 21 34  1  0
 22 35  1  1
 22 36  1  0
 22 37  1  0
M  END
>  <Pose ID>  (46)
73

>  <Score>  (46)
-7.642850399017334

>  <smiles>  (46)
Cc1ccnc(Nc2ncncc2Oc2ccnc(C)c2)c1

$$$$

     RDKit          3D

 35 37  0  0  0  0  0  0  0  0999 V2000
   26.4100    7.0420   -8.4370 C   0  0  0  0  0  0  0  0  0  0  0  0
   27.2570    7.0960   -9.5350 N   0  0  0  0  0  0  0  0  0  0  0  0
   27.6450    8.3240  -10.0540 C   0  0  0  0  0  0  0  0  0  0  0  0
   28.4610    8.0210  -11.1110 N   0  0  0  0  0  0  0  0  0  0  0  0
   25.9510    8.2170   -7.8560 N   0  0  0  0  0  0  0  0  0  0  0  0
   26.3380    9.4470   -8.3740 C   0  0  0  0  0  0  0  0  0  0  0  0
   27.1870    9.5010   -9.4740 C   0  0  0  0  0  0  0  0  0  0  0  0
   29.0360    9.1690  -11.8010 C   0  0  0  0  0  0  0  0  0  0  0  0
   30.3800    9.2880  -12.1340 N   0  0  0  0  0  0  0  0  0  0  0  0
   30.8350   10.4220  -12.7980 C   0  0  0  0  0  0  0  0  0  0  0  0
   29.9460   11.4370  -13.1260 C   0  0  0  0  0  0  0  0  0  0  0  0
   28.6020   11.3220  -12.7930 C   0  0  0  0  0  0  0  0  0  0  0  0
   28.1430   10.1720  -12.1550 C   0  0  0  0  0  0  0  0  0  0  0  0
   27.5730   10.7190   -9.9870 O   0  0  0  0  0  0  0  0  0  0  0  0
   27.1760   11.8560   -9.4710 C   0  0  0  0  0  0  0  0  0  0  0  0
   28.0440   12.7130   -8.8070 C   0  0  0  0  0  0  0  0  0  0  0  0
   27.5720   13.9060   -8.2740 C   0  0  0  0  0  0  0  0  0  0  0  0
   26.2300   14.2430   -8.4040 C   0  0  0  0  0  0  0  0  0  0  0  0
   25.3600   13.3850   -9.0660 C   0  0  0  0  0  0  0  0  0  0  0  0
   25.8160   12.2090   -9.6340 C   0  0  0  0  0  0  0  0  0  0  0  0
   23.8980   13.7410   -9.1670 C   0  0  1  0  0  0  0  0  0  0  0  0
   26.1023    6.0688   -8.0270 H   0  0  0  0  0  0  0  0  0  0  0  0
   28.6547    7.0510  -11.3981 H   0  0  0  0  0  0  0  0  0  0  0  0
   25.9730   10.3773   -7.9142 H   0  0  0  0  0  0  0  0  0  0  0  0
   31.8985   10.5149  -13.0632 H   0  0  0  0  0  0  0  0  0  0  0  0
   30.3066   12.3341  -13.6506 H   0  0  0  0  0  0  0  0  0  0  0  0
   27.9026   12.1366  -13.0324 H   0  0  0  0  0  0  0  0  0  0  0  0
   27.0720   10.0581  -11.9313 H   0  0  0  0  0  0  0  0  0  0  0  0
   29.1063   12.4469   -8.7030 H   0  0  0  0  0  0  0  0  0  0  0  0
   28.2608   14.5841   -7.7489 H   0  0  0  0  0  0  0  0  0  0  0  0
   25.8567   15.1883   -7.9832 H   0  0  0  0  0  0  0  0  0  0  0  0
   25.1333   11.5601  -10.2022 H   0  0  0  0  0  0  0  0  0  0  0  0
   23.4751   13.8440   -8.1568 H   0  0  0  0  0  0  0  0  0  0  0  0
   23.7888   14.6920   -9.7089 H   0  0  0  0  0  0  0  0  0  0  0  0
   23.3638   12.9467   -9.7089 H   0  0  0  0  0  0  0  0  0  0  0  0
  1  2  2  0
  1  5  1  0
  2  3  1  0
  3  4  1  0
  3  7  2  0
  5  6  2  0
  6  7  1  0
  7 14  1  0
  4  8  1  0
  8 13  1  0
  8  9  2  0
  9 10  1  0
 10 11  2  0
 11 12  1  0
 12 13  2  0
 14 15  1  0
 15 20  1  0
 15 16  2  0
 16 17  1  0
 17 18  2  0
 18 19  1  0
 19 20  2  0
 19 21  1  0
  1 22  1  0
  4 23  1  0
  6 24  1  0
 10 25  1  0
 11 26  1  0
 12 27  1  0
 13 28  1  0
 16 29  1  0
 17 30  1  0
 18 31  1  0
 20 32  1  0
 21 33  1  1
 21 34  1  0
 21 35  1  0
M  END
>  <Pose ID>  (47)
105

>  <Score>  (47)
-7.623637676239014

>  <smiles>  (47)
Cc1cccc(Oc2cncnc2Nc2ccccn2)c1

$$$$

     RDKit          3D

 37 39  0  0  0  0  0  0  0  0999 V2000
   26.4080    7.0450   -8.4320 C   0  0  0  0  0  0  0  0  0  0  0  0
   27.2160    7.2450   -9.5420 N   0  0  0  0  0  0  0  0  0  0  0  0
   27.3490    8.5150  -10.0870 C   0  0  0  0  0  0  0  0  0  0  0  0
   28.1950    8.3600  -11.1500 N   0  0  0  0  0  0  0  0  0  0  0  0
   25.7360    8.1170   -7.8590 N   0  0  0  0  0  0  0  0  0  0  0  0
   25.8680    9.3890   -8.4010 C   0  0  0  0  0  0  0  0  0  0  0  0
   26.6760    9.5900   -9.5160 C   0  0  0  0  0  0  0  0  0  0  0  0
   28.5240    9.5870  -11.8670 C   0  0  0  0  0  0  0  0  0  0  0  0
   29.8160    9.9610  -12.2220 N   0  0  0  0  0  0  0  0  0  0  0  0
   30.0300   11.1500  -12.9090 C   0  0  0  0  0  0  0  0  0  0  0  0
   28.9570   11.9670  -13.2380 C   0  0  0  0  0  0  0  0  0  0  0  0
   27.6650   11.5960  -12.8810 C   0  0  0  0  0  0  0  0  0  0  0  0
   27.4480   10.3880  -12.2200 C   0  0  0  0  0  0  0  0  0  0  0  0
   26.8100   10.8510  -10.0510 O   0  0  0  0  0  0  0  0  0  0  0  0
   26.1950   11.9000   -9.5580 C   0  0  0  0  0  0  0  0  0  0  0  0
   26.8940   12.9100   -8.9080 C   0  0  0  0  0  0  0  0  0  0  0  0
   26.2120   14.0000   -8.3800 C   0  0  0  0  0  0  0  0  0  0  0  0
   24.8290   14.0770   -8.5000 C   0  0  0  0  0  0  0  0  0  0  0  0
   24.1290   13.0660   -9.1480 N   0  0  0  0  0  0  0  0  0  0  0  0
   24.8140   11.9770   -9.6780 C   0  0  0  0  0  0  0  0  0  0  0  0
   24.0880   15.2590   -7.9260 C   0  0  1  0  0  0  0  0  0  0  0  0
   28.3950   12.8240   -8.7770 C   0  0  1  0  0  0  0  0  0  0  0  0
   26.2995    6.0369   -8.0055 H   0  0  0  0  0  0  0  0  0  0  0  0
   28.5731    7.4422  -11.4249 H   0  0  0  0  0  0  0  0  0  0  0  0
   25.3338   10.2376   -7.9488 H   0  0  0  0  0  0  0  0  0  0  0  0
   31.0513   11.4442  -13.1925 H   0  0  0  0  0  0  0  0  0  0  0  0
   29.1286   12.9080  -13.7812 H   0  0  0  0  0  0  0  0  0  0  0  0
   26.8165   12.2541  -13.1196 H   0  0  0  0  0  0  0  0  0  0  0  0
   26.4231   10.0699  -11.9783 H   0  0  0  0  0  0  0  0  0  0  0  0
   26.7658   14.8007   -7.8679 H   0  0  0  0  0  0  0  0  0  0  0  0
   24.2612   11.1769  -10.1922 H   0  0  0  0  0  0  0  0  0  0  0  0
   24.1175   15.2119   -6.8274 H   0  0  0  0  0  0  0  0  0  0  0  0
   24.5641   16.1905   -8.2660 H   0  0  0  0  0  0  0  0  0  0  0  0
   23.0421   15.2364   -8.2660 H   0  0  0  0  0  0  0  0  0  0  0  0
   28.6698   12.8083   -7.7120 H   0  0  0  0  0  0  0  0  0  0  0  0
   28.7532   11.9039   -9.2618 H   0  0  0  0  0  0  0  0  0  0  0  0
   28.8560   13.6972   -9.2618 H   0  0  0  0  0  0  0  0  0  0  0  0
  1  2  2  0
  1  5  1  0
  2  3  1  0
  3  4  1  0
  3  7  2  0
  5  6  2  0
  6  7  1  0
  7 14  1  0
  4  8  1  0
  8  9  2  0
  8 13  1  0
  9 10  1  0
 10 11  2  0
 11 12  1  0
 12 13  2  0
 14 15  1  0
 15 20  1  0
 15 16  2  0
 16 22  1  0
 16 17  1  0
 17 18  2  0
 18 19  1  0
 18 21  1  0
 19 20  2  0
  1 23  1  0
  4 24  1  0
  6 25  1  0
 10 26  1  0
 11 27  1  0
 12 28  1  0
 13 29  1  0
 17 30  1  0
 20 31  1  0
 21 32  1  1
 21 33  1  0
 21 34  1  0
 22 35  1  1
 22 36  1  0
 22 37  1  0
M  END
>  <Pose ID>  (48)
95

>  <Score>  (48)
-7.612867832183838

>  <smiles>  (48)
Cc1cc(C)c(Oc2cncnc2Nc2ccccn2)cn1

$$$$

     RDKit          3D

 40 42  0  0  0  0  0  0  0  0999 V2000
   26.4030    7.0420   -8.4360 C   0  0  0  0  0  0  0  0  0  0  0  0
   27.3050    7.1020   -9.4900 N   0  0  0  0  0  0  0  0  0  0  0  0
   27.6360    8.3260  -10.0550 C   0  0  0  0  0  0  0  0  0  0  0  0
   28.5270    8.0310  -11.0500 N   0  0  0  0  0  0  0  0  0  0  0  0
   25.8350    8.2070   -7.9420 N   0  0  0  0  0  0  0  0  0  0  0  0
   26.1640    9.4340   -8.5030 C   0  0  0  0  0  0  0  0  0  0  0  0
   27.0660    9.4950   -9.5610 C   0  0  0  0  0  0  0  0  0  0  0  0
   29.0570    9.1820  -11.7700 C   0  0  0  0  0  0  0  0  0  0  0  0
   30.4070    9.3800  -12.0400 N   0  0  0  0  0  0  0  0  0  0  0  0
   30.8170   10.5090  -12.7380 C   0  0  0  0  0  0  0  0  0  0  0  0
   29.8810   11.4410  -13.1650 C   0  0  0  0  0  0  0  0  0  0  0  0
   28.5320   11.2480  -12.8950 C   0  0  0  0  0  0  0  0  0  0  0  0
   28.1180   10.0990  -12.2200 C   0  0  0  0  0  0  0  0  0  0  0  0
   27.3960   10.7110  -10.1170 O   0  0  0  0  0  0  0  0  0  0  0  0
   26.8860   11.8450   -9.6950 C   0  0  0  0  0  0  0  0  0  0  0  0
   27.6600   12.7810   -9.0220 C   0  0  0  0  0  0  0  0  0  0  0  0
   27.0870   13.9640   -8.5730 C   0  0  0  0  0  0  0  0  0  0  0  0
   25.7370   14.2100   -8.7950 C   0  0  0  0  0  0  0  0  0  0  0  0
   24.9610   13.2720   -9.4680 N   0  0  0  0  0  0  0  0  0  0  0  0
   25.5370   12.0880   -9.9180 C   0  0  0  0  0  0  0  0  0  0  0  0
   25.1130   15.4930   -8.3060 C   0  0  1  0  0  0  0  0  0  0  0  0
   24.9380   16.3860   -9.5140 C   0  0  1  0  0  0  0  0  0  0  0  0
   27.9290   14.9820   -7.8440 C   0  0  1  0  0  0  0  0  0  0  0  0
   26.1389    6.0705   -7.9928 H   0  0  0  0  0  0  0  0  0  0  0  0
   28.8036    7.0645  -11.2744 H   0  0  0  0  0  0  0  0  0  0  0  0
   25.7119   10.3572   -8.1113 H   0  0  0  0  0  0  0  0  0  0  0  0
   31.8846   10.6646  -12.9526 H   0  0  0  0  0  0  0  0  0  0  0  0
   30.2080   12.3338  -13.7181 H   0  0  0  0  0  0  0  0  0  0  0  0
   27.7928   11.9983  -13.2122 H   0  0  0  0  0  0  0  0  0  0  0  0
   27.0469    9.9202  -12.0446 H   0  0  0  0  0  0  0  0  0  0  0  0
   28.7278   12.5855   -8.8443 H   0  0  0  0  0  0  0  0  0  0  0  0
   24.9244   11.3452  -10.4499 H   0  0  0  0  0  0  0  0  0  0  0  0
   24.1364   15.2863   -7.8439 H   0  0  0  0  0  0  0  0  0  0  0  0
   25.7483   15.9757   -7.5488 H   0  0  0  0  0  0  0  0  0  0  0  0
   24.7363   17.4154   -9.1829 H   0  0  0  0  0  0  0  0  0  0  0  0
   25.8566   16.3688  -10.1189 H   0  0  0  0  0  0  0  0  0  0  0  0
   24.0938   16.0233  -10.1189 H   0  0  0  0  0  0  0  0  0  0  0  0
   27.8143   14.8433   -6.7588 H   0  0  0  0  0  0  0  0  0  0  0  0
   28.9854   14.8500   -8.1209 H   0  0  0  0  0  0  0  0  0  0  0  0
   27.6012   15.9949   -8.1209 H   0  0  0  0  0  0  0  0  0  0  0  0
  1  2  2  0
  1  5  1  0
  2  3  1  0
  3  4  1  0
  3  7  2  0
  5  6  2  0
  6  7  1  0
  7 14  1  0
  4  8  1  0
  8 13  1  0
  8  9  2  0
  9 10  1  0
 10 11  2  0
 11 12  1  0
 12 13  2  0
 14 15  1  0
 15 20  1  0
 15 16  2  0
 16 17  1  0
 17 18  2  0
 17 23  1  0
 18 19  1  0
 18 21  1  0
 19 20  2  0
 21 22  1  0
  1 24  1  0
  4 25  1  0
  6 26  1  0
 10 27  1  0
 11 28  1  0
 12 29  1  0
 13 30  1  0
 16 31  1  0
 20 32  1  0
 21 33  1  1
 21 34  1  0
 22 35  1  1
 22 36  1  0
 22 37  1  0
 23 38  1  1
 23 39  1  0
 23 40  1  0
M  END
>  <Pose ID>  (49)
99

>  <Score>  (49)
-7.611731052398682

>  <smiles>  (49)
CCc1ncc(Oc2cncnc2Nc2ccccn2)cc1C

$$$$

     RDKit          3D

 40 42  0  0  0  0  0  0  0  0999 V2000
   26.4100    7.0420   -8.4410 C   0  0  0  0  0  0  0  0  0  0  0  0
   27.2790    7.0750   -9.5230 N   0  0  0  0  0  0  0  0  0  0  0  0
   27.6670    8.2920  -10.0670 C   0  0  0  0  0  0  0  0  0  0  0  0
   28.5060    7.9700  -11.0990 N   0  0  0  0  0  0  0  0  0  0  0  0
   25.9320    8.2270   -7.8980 N   0  0  0  0  0  0  0  0  0  0  0  0
   26.3180    9.4460   -8.4400 C   0  0  0  0  0  0  0  0  0  0  0  0
   27.1880    9.4800   -9.5250 C   0  0  0  0  0  0  0  0  0  0  0  0
   29.0830    9.1060  -11.8080 C   0  0  0  0  0  0  0  0  0  0  0  0
   30.4340    9.2270  -12.1180 N   0  0  0  0  0  0  0  0  0  0  0  0
   30.8920   10.3480  -12.8010 C   0  0  0  0  0  0  0  0  0  0  0  0
   30.0020   11.3480  -13.1720 C   0  0  0  0  0  0  0  0  0  0  0  0
   28.6530   11.2290  -12.8610 C   0  0  0  0  0  0  0  0  0  0  0  0
   28.1900   10.0910  -12.2030 C   0  0  0  0  0  0  0  0  0  0  0  0
   27.5750   10.6870  -10.0600 O   0  0  0  0  0  0  0  0  0  0  0  0
   27.1510   11.8380   -9.5940 C   0  0  0  0  0  0  0  0  0  0  0  0
   28.0040   12.7070   -8.9240 C   0  0  0  0  0  0  0  0  0  0  0  0
   27.5210   13.9100   -8.4240 C   0  0  0  0  0  0  0  0  0  0  0  0
   26.1820   14.2440   -8.5950 C   0  0  0  0  0  0  0  0  0  0  0  0
   25.3270   13.3750   -9.2640 N   0  0  0  0  0  0  0  0  0  0  0  0
   25.8140   12.1710   -9.7640 C   0  0  0  0  0  0  0  0  0  0  0  0
   27.6910   12.3300  -13.2350 C   0  0  1  0  0  0  0  0  0  0  0  0
   25.6560   15.5500   -8.0530 C   0  0  1  0  0  0  0  0  0  0  0  0
   25.5200   15.3830   -6.5590 C   0  0  1  0  0  0  0  0  0  0  0  0
   26.1001    6.0769   -8.0138 H   0  0  0  0  0  0  0  0  0  0  0  0
   28.7150    6.9949  -11.3565 H   0  0  0  0  0  0  0  0  0  0  0  0
   25.9359   10.3843   -8.0115 H   0  0  0  0  0  0  0  0  0  0  0  0
   31.9597   10.4431  -13.0478 H   0  0  0  0  0  0  0  0  0  0  0  0
   30.3654   12.2346  -13.7123 H   0  0  0  0  0  0  0  0  0  0  0  0
   27.1159    9.9740  -11.9968 H   0  0  0  0  0  0  0  0  0  0  0  0
   29.0631   12.4420   -8.7894 H   0  0  0  0  0  0  0  0  0  0  0  0
   28.1968   14.5971   -7.8937 H   0  0  0  0  0  0  0  0  0  0  0  0
   25.1392   11.4828  -10.2942 H   0  0  0  0  0  0  0  0  0  0  0  0
   27.2882   12.7910  -12.3211 H   0  0  0  0  0  0  0  0  0  0  0  0
   28.2182   13.0917  -13.8282 H   0  0  0  0  0  0  0  0  0  0  0  0
   26.8655   11.9098  -13.8282 H   0  0  0  0  0  0  0  0  0  0  0  0
   26.3598   16.3644   -8.2799 H   0  0  0  0  0  0  0  0  0  0  0  0
   24.6883   15.8042   -8.5100 H   0  0  0  0  0  0  0  0  0  0  0  0
   26.1352   16.1384   -6.0481 H   0  0  0  0  0  0  0  0  0  0  0  0
   24.4664   15.5116   -6.2701 H   0  0  0  0  0  0  0  0  0  0  0  0
   25.8593   14.3773   -6.2701 H   0  0  0  0  0  0  0  0  0  0  0  0
  1  2  2  0
  1  5  1  0
  2  3  1  0
  3  4  1  0
  3  7  2  0
  5  6  2  0
  6  7  1  0
  7 14  1  0
  4  8  1  0
  8 13  1  0
  8  9  2  0
  9 10  1  0
 10 11  2  0
 11 12  1  0
 12 21  1  0
 12 13  2  0
 14 15  1  0
 15 20  1  0
 15 16  2  0
 16 17  1  0
 17 18  2  0
 18 19  1  0
 18 22  1  0
 19 20  2  0
 22 23  1  0
  1 24  1  0
  4 25  1  0
  6 26  1  0
 10 27  1  0
 11 28  1  0
 13 29  1  0
 16 30  1  0
 17 31  1  0
 20 32  1  0
 21 33  1  1
 21 34  1  0
 21 35  1  0
 22 36  1  1
 22 37  1  0
 23 38  1  1
 23 39  1  0
 23 40  1  0
M  END
>  <Pose ID>  (50)
86

>  <Score>  (50)
-7.595025062561035

>  <smiles>  (50)
CCc1ccc(Oc2cncnc2Nc2cc(C)ccn2)cn1

$$$$

     RDKit          3D

 25 28  0  0  0  0  0  0  0  0999 V2000
   27.6040    7.9580  -10.2230 C   0  0  0  0  0  0  0  0  0  0  0  0
   27.2210    7.0440   -9.2740 N   0  0  0  0  0  0  0  0  0  0  0  0
   26.3550    7.3940   -8.2890 C   0  0  0  0  0  0  0  0  0  0  0  0
   28.4860    7.9260  -11.2960 C   0  0  0  0  0  0  0  0  0  0  0  0
   28.6360    9.0460  -12.1050 C   0  0  0  0  0  0  0  0  0  0  0  0
   27.9020   10.1970  -11.8390 C   0  0  0  0  0  0  0  0  0  0  0  0
   27.0180   10.2260  -10.7670 C   0  0  0  0  0  0  0  0  0  0  0  0
   26.8710    9.1080   -9.9580 C   0  0  0  0  0  0  0  0  0  0  0  0
   26.0790    8.7660   -8.5710 O   0  0  0  0  0  0  0  0  0  0  0  0
   28.0550   11.3320  -12.6590 C   0  0  0  0  0  0  0  0  0  0  0  0
   27.0810   12.0740  -13.1540 N   0  0  0  0  0  0  0  0  0  0  0  0
   27.5900   13.0990  -13.7760 N   0  0  0  0  0  0  0  0  0  0  0  0
   28.7790   13.0620  -13.7340 C   0  0  0  0  0  0  0  0  0  0  0  0
   29.1900   11.9470  -13.0130 N   0  0  0  0  0  0  0  0  0  0  0  0
   30.5450   11.7020  -12.8230 C   0  0  0  0  0  0  0  0  0  0  0  0
   31.4900   12.5720  -13.3570 N   0  0  0  0  0  0  0  0  0  0  0  0
   31.0790   13.6860  -14.0790 C   0  0  0  0  0  0  0  0  0  0  0  0
   29.7230   13.9320  -14.2670 C   0  0  0  0  0  0  0  0  0  0  0  0
   25.9614    6.7716   -7.4719 H   0  0  0  0  0  0  0  0  0  0  0  0
   29.0653    7.0146  -11.5051 H   0  0  0  0  0  0  0  0  0  0  0  0
   29.3343    9.0222  -12.9546 H   0  0  0  0  0  0  0  0  0  0  0  0
   26.4347   11.1353  -10.5597 H   0  0  0  0  0  0  0  0  0  0  0  0
   30.8699   10.8206  -12.2507 H   0  0  0  0  0  0  0  0  0  0  0  0
   31.8263   14.3735  -14.5020 H   0  0  0  0  0  0  0  0  0  0  0  0
   29.3978   14.8147  -14.8372 H   0  0  0  0  0  0  0  0  0  0  0  0
  1  4  2  0
  1  8  1  0
  1  2  1  0
  2  3  2  0
  3  9  1  0
  4  5  1  0
  5  6  2  0
  6 10  1  0
  6  7  1  0
  7  8  2  0
  8  9  1  0
 10 11  2  0
 10 14  1  0
 11 12  1  0
 12 13  2  0
 13 18  1  0
 13 14  1  0
 14 15  1  0
 15 16  2  0
 16 17  1  0
 17 18  2  0
  3 19  1  0
  4 20  1  0
  5 21  1  0
  7 22  1  0
 15 23  1  0
 17 24  1  0
 18 25  1  0
M  END
>  <Pose ID>  (51)
118

>  <Score>  (51)
-7.592508792877197

>  <smiles>  (51)
c1cc2nnc(-c3ccc4ncoc4c3)n2cn1

$$$$

     RDKit          3D

 40 42  0  0  0  0  0  0  0  0999 V2000
   26.4030    7.0420   -8.4400 C   0  0  0  0  0  0  0  0  0  0  0  0
   27.2760    7.0760   -9.5190 N   0  0  0  0  0  0  0  0  0  0  0  0
   27.6570    8.2960  -10.0650 C   0  0  0  0  0  0  0  0  0  0  0  0
   28.5030    7.9750  -11.0950 N   0  0  0  0  0  0  0  0  0  0  0  0
   25.9150    8.2230   -7.9020 N   0  0  0  0  0  0  0  0  0  0  0  0
   26.2970    9.4440   -8.4470 C   0  0  0  0  0  0  0  0  0  0  0  0
   27.1700    9.4820   -9.5280 C   0  0  0  0  0  0  0  0  0  0  0  0
   29.0760    9.1150  -11.8040 C   0  0  0  0  0  0  0  0  0  0  0  0
   30.4260    9.2430  -12.1090 N   0  0  0  0  0  0  0  0  0  0  0  0
   30.8790   10.3650  -12.7930 C   0  0  0  0  0  0  0  0  0  0  0  0
   29.9840   11.3570  -13.1710 C   0  0  0  0  0  0  0  0  0  0  0  0
   28.6350   11.2300  -12.8650 C   0  0  0  0  0  0  0  0  0  0  0  0
   28.1780   10.0920  -12.2060 C   0  0  0  0  0  0  0  0  0  0  0  0
   27.5510   10.6910  -10.0650 O   0  0  0  0  0  0  0  0  0  0  0  0
   27.0990   11.8080   -9.5370 C   0  0  0  0  0  0  0  0  0  0  0  0
   27.9770   12.7160   -8.9550 C   0  0  0  0  0  0  0  0  0  0  0  0
   27.5000   13.9280   -8.4700 C   0  0  0  0  0  0  0  0  0  0  0  0
   26.1480   14.2310   -8.5690 N   0  0  0  0  0  0  0  0  0  0  0  0
   25.2710   13.3240   -9.1500 C   0  0  0  0  0  0  0  0  0  0  0  0
   25.7470   12.1110   -9.6340 C   0  0  0  0  0  0  0  0  0  0  0  0
   27.6660   12.3230  -13.2450 C   0  0  1  0  0  0  0  0  0  0  0  0
   28.0540   13.7270  -12.7980 C   0  0  1  0  0  0  0  0  0  0  0  0
   29.0390   13.7440  -11.6110 C   0  0  1  0  0  0  0  0  0  0  0  0
   26.0979    6.0761   -8.0111 H   0  0  0  0  0  0  0  0  0  0  0  0
   28.7185    7.0006  -11.3499 H   0  0  0  0  0  0  0  0  0  0  0  0
   25.9078   10.3810   -8.0221 H   0  0  0  0  0  0  0  0  0  0  0  0
   31.9472   10.4671  -13.0350 H   0  0  0  0  0  0  0  0  0  0  0  0
   30.3435   12.2441  -13.7131 H   0  0  0  0  0  0  0  0  0  0  0  0
   27.1038    9.9678  -12.0041 H   0  0  0  0  0  0  0  0  0  0  0  0
   29.0476   12.4753   -8.8786 H   0  0  0  0  0  0  0  0  0  0  0  0
   28.1927   14.6469   -8.0080 H   0  0  0  0  0  0  0  0  0  0  0  0
   24.2006   13.5654   -9.2270 H   0  0  0  0  0  0  0  0  0  0  0  0
   25.0534   11.3915  -10.0936 H   0  0  0  0  0  0  0  0  0  0  0  0
   27.5748   12.3292  -14.3412 H   0  0  0  0  0  0  0  0  0  0  0  0
   26.7262   12.0886  -12.7237 H   0  0  0  0  0  0  0  0  0  0  0  0
   28.5229   14.2457  -13.6471 H   0  0  0  0  0  0  0  0  0  0  0  0
   27.1331   14.2258  -12.4617 H   0  0  0  0  0  0  0  0  0  0  0  0
   28.4752   13.7343  -10.6665 H   0  0  0  0  0  0  0  0  0  0  0  0
   29.6876   12.8569  -11.6600 H   0  0  0  0  0  0  0  0  0  0  0  0
   29.6566   14.6529  -11.6600 H   0  0  0  0  0  0  0  0  0  0  0  0
  1  2  2  0
  1  5  1  0
  2  3  1  0
  3  4  1  0
  3  7  2  0
  5  6  2  0
  6  7  1  0
  7 14  1  0
  4  8  1  0
  8 13  1  0
  8  9  2  0
  9 10  1  0
 10 11  2  0
 11 12  1  0
 12 21  1  0
 12 13  2  0
 21 22  1  0
 22 23  1  0
 14 15  1  0
 15 20  1  0
 15 16  2  0
 16 17  1  0
 17 18  2  0
 18 19  1  0
 19 20  2  0
  1 24  1  0
  4 25  1  0
  6 26  1  0
 10 27  1  0
 11 28  1  0
 13 29  1  0
 16 30  1  0
 17 31  1  0
 19 32  1  0
 20 33  1  0
 21 34  1  6
 21 35  1  0
 22 36  1  6
 22 37  1  0
 23 38  1  1
 23 39  1  0
 23 40  1  0
M  END
>  <Pose ID>  (52)
74

>  <Score>  (52)
-7.572746753692627

>  <smiles>  (52)
CCCc1ccnc(Nc2ncncc2Oc2ccncc2)c1

$$$$

     RDKit          3D

 40 42  0  0  0  0  0  0  0  0999 V2000
   26.4090    7.0420   -8.4410 C   0  0  0  0  0  0  0  0  0  0  0  0
   27.2740    7.0760   -9.5260 N   0  0  0  0  0  0  0  0  0  0  0  0
   27.6550    8.2930  -10.0750 C   0  0  0  0  0  0  0  0  0  0  0  0
   28.4920    7.9720  -11.1080 N   0  0  0  0  0  0  0  0  0  0  0  0
   25.9270    8.2260   -7.9000 N   0  0  0  0  0  0  0  0  0  0  0  0
   26.3050    9.4450   -8.4470 C   0  0  0  0  0  0  0  0  0  0  0  0
   27.1710    9.4800   -9.5350 C   0  0  0  0  0  0  0  0  0  0  0  0
   29.0610    9.1090  -11.8230 C   0  0  0  0  0  0  0  0  0  0  0  0
   30.4100    9.2350  -12.1370 N   0  0  0  0  0  0  0  0  0  0  0  0
   30.8610   10.3560  -12.8250 C   0  0  0  0  0  0  0  0  0  0  0  0
   29.9650   11.3510  -13.1960 C   0  0  0  0  0  0  0  0  0  0  0  0
   28.6170   11.2260  -12.8810 C   0  0  0  0  0  0  0  0  0  0  0  0
   28.1620   10.0880  -12.2180 C   0  0  0  0  0  0  0  0  0  0  0  0
   27.5510   10.6870  -10.0750 O   0  0  0  0  0  0  0  0  0  0  0  0
   27.1220   11.8380   -9.6110 C   0  0  0  0  0  0  0  0  0  0  0  0
   27.9730   12.7130   -8.9460 C   0  0  0  0  0  0  0  0  0  0  0  0
   27.4860   13.9150   -8.4490 C   0  0  0  0  0  0  0  0  0  0  0  0
   26.1440   14.2420   -8.6160 C   0  0  0  0  0  0  0  0  0  0  0  0
   25.2920   13.3670   -9.2800 N   0  0  0  0  0  0  0  0  0  0  0  0
   25.7830   12.1640   -9.7780 C   0  0  0  0  0  0  0  0  0  0  0  0
   27.6480   12.3210  -13.2550 C   0  0  1  0  0  0  0  0  0  0  0  0
   25.6140   15.5470   -8.0770 C   0  0  1  0  0  0  0  0  0  0  0  0
   28.0410   13.7250  -12.8110 C   0  0  1  0  0  0  0  0  0  0  0  0
   26.1054    6.0767   -8.0098 H   0  0  0  0  0  0  0  0  0  0  0  0
   28.7053    6.9971  -11.3628 H   0  0  0  0  0  0  0  0  0  0  0  0
   25.9197   10.3827   -8.0201 H   0  0  0  0  0  0  0  0  0  0  0  0
   31.9275   10.4551  -13.0756 H   0  0  0  0  0  0  0  0  0  0  0  0
   30.3226   12.2381  -13.7393 H   0  0  0  0  0  0  0  0  0  0  0  0
   27.0891    9.9662  -12.0079 H   0  0  0  0  0  0  0  0  0  0  0  0
   29.0336   12.4531   -8.8132 H   0  0  0  0  0  0  0  0  0  0  0  0
   28.1604   14.6075   -7.9240 H   0  0  0  0  0  0  0  0  0  0  0  0
   25.1099   11.4711  -10.3042 H   0  0  0  0  0  0  0  0  0  0  0  0
   27.5499   12.3271  -14.3506 H   0  0  0  0  0  0  0  0  0  0  0  0
   26.7113   12.0885  -12.7272 H   0  0  0  0  0  0  0  0  0  0  0  0
   25.6246   15.5209   -6.9774 H   0  0  0  0  0  0  0  0  0  0  0  0
   26.2475   16.3739   -8.4303 H   0  0  0  0  0  0  0  0  0  0  0  0
   24.5833   15.6980   -8.4303 H   0  0  0  0  0  0  0  0  0  0  0  0
   28.0541   13.7718  -11.7121 H   0  0  0  0  0  0  0  0  0  0  0  0
   29.0412   13.9662  -13.2002 H   0  0  0  0  0  0  0  0  0  0  0  0
   27.3114   14.4504  -13.2002 H   0  0  0  0  0  0  0  0  0  0  0  0
  1  2  2  0
  1  5  1  0
  2  3  1  0
  3  4  1  0
  3  7  2  0
  5  6  2  0
  6  7  1  0
  7 14  1  0
  4  8  1  0
  8 13  1  0
  8  9  2  0
  9 10  1  0
 10 11  2  0
 11 12  1  0
 12 21  1  0
 12 13  2  0
 21 23  1  0
 14 15  1  0
 15 20  1  0
 15 16  2  0
 16 17  1  0
 17 18  2  0
 18 19  1  0
 18 22  1  0
 19 20  2  0
  1 24  1  0
  4 25  1  0
  6 26  1  0
 10 27  1  0
 11 28  1  0
 13 29  1  0
 16 30  1  0
 17 31  1  0
 20 32  1  0
 21 33  1  6
 21 34  1  0
 22 35  1  6
 22 36  1  0
 22 37  1  0
 23 38  1  1
 23 39  1  0
 23 40  1  0
M  END
>  <Pose ID>  (53)
87

>  <Score>  (53)
-7.556948184967041

>  <smiles>  (53)
CCc1ccnc(Nc2ncncc2Oc2ccc(C)nc2)c1

$$$$

     RDKit          3D

 38 41  0  0  0  0  0  0  0  0999 V2000
   28.3120    8.0350  -10.5530 C   0  0  0  0  0  0  0  0  0  0  0  0
   27.6800    7.0420   -9.8170 N   0  0  0  0  0  0  0  0  0  0  0  0
   26.3930    7.2420   -9.3370 C   0  0  0  0  0  0  0  0  0  0  0  0
   25.7340    8.4400   -9.5960 N   0  0  0  0  0  0  0  0  0  0  0  0
   26.3640    9.4330  -10.3340 C   0  0  0  0  0  0  0  0  0  0  0  0
   27.6530    9.2310  -10.8130 C   0  0  0  0  0  0  0  0  0  0  0  0
   25.9390   10.6540  -10.7080 N   0  0  0  0  0  0  0  0  0  0  0  0
   26.8230   11.2020  -11.3560 N   0  0  0  0  0  0  0  0  0  0  0  0
   27.8740   10.4370  -11.4810 C   0  0  0  0  0  0  0  0  0  0  0  0
   29.1190   10.5760  -12.1180 C   0  0  0  0  0  0  0  0  0  0  0  0
   29.3830   11.7920  -12.8360 C   0  0  0  0  0  0  0  0  0  0  0  0
   30.5070   11.7940  -13.3460 C   0  0  0  0  0  0  0  0  0  0  0  0
   30.1540    9.7390  -12.2730 O   0  0  0  0  0  0  0  0  0  0  0  0
   31.0540   10.3640  -12.9970 C   0  0  0  0  0  0  0  0  0  0  0  0
   28.3990   12.9300  -12.9530 C   0  0  1  0  0  0  0  0  0  0  0  0
   28.6350   13.9380  -11.9290 N   0  0  0  0  0  0  0  0  0  0  0  0
   28.0670   13.8840  -10.6490 C   0  0  0  0  0  0  0  0  0  0  0  0
   28.8620   13.7410   -9.5170 C   0  0  0  0  0  0  0  0  0  0  0  0
   28.2770   13.6940   -8.2580 C   0  0  0  0  0  0  0  0  0  0  0  0
   26.8970   13.7900   -8.1280 C   0  0  0  0  0  0  0  0  0  0  0  0
   26.1010   13.9340   -9.2600 C   0  0  0  0  0  0  0  0  0  0  0  0
   26.6870   13.9810  -10.5190 C   0  0  0  0  0  0  0  0  0  0  0  0
   31.1880   12.8990  -14.1140 C   0  0  1  0  0  0  0  0  0  0  0  0
   29.3330    7.8756  -10.9300 H   0  0  0  0  0  0  0  0  0  0  0  0
   25.8946    6.4545   -8.7526 H   0  0  0  0  0  0  0  0  0  0  0  0
   24.7791    8.5900   -9.2403 H   0  0  0  0  0  0  0  0  0  0  0  0
   32.0269    9.9548  -13.3067 H   0  0  0  0  0  0  0  0  0  0  0  0
   28.5040   13.3945  -13.9446 H   0  0  0  0  0  0  0  0  0  0  0  0
   27.3840   12.5279  -12.8184 H   0  0  0  0  0  0  0  0  0  0  0  0
   29.2510   14.7314  -12.1571 H   0  0  0  0  0  0  0  0  0  0  0  0
   29.9547   13.6651   -9.6186 H   0  0  0  0  0  0  0  0  0  0  0  0
   28.9067   13.5807   -7.3632 H   0  0  0  0  0  0  0  0  0  0  0  0
   26.4341   13.7522   -7.1308 H   0  0  0  0  0  0  0  0  0  0  0  0
   25.0084   14.0106   -9.1583 H   0  0  0  0  0  0  0  0  0  0  0  0
   26.0576   14.0951  -11.4139 H   0  0  0  0  0  0  0  0  0  0  0  0
   31.6306   13.6172  -13.4082 H   0  0  0  0  0  0  0  0  0  0  0  0
   31.9796   12.4716  -14.7470 H   0  0  0  0  0  0  0  0  0  0  0  0
   30.4504   13.4141  -14.7470 H   0  0  0  0  0  0  0  0  0  0  0  0
 10 11  2  0
 10 13  1  0
 10  9  1  0
 11 12  1  0
 11 15  1  0
 12 23  1  0
 12 14  2  0
 13 14  1  0
  1  6  2  0
  1  2  1  0
  2  3  2  0
  3  4  1  0
  4  5  1  0
  5  6  1  0
  5  7  2  0
  6  9  1  0
  7  8  1  0
  8  9  2  0
 15 16  1  0
 16 17  1  0
 17 22  1  0
 17 18  2  0
 18 19  1  0
 19 20  2  0
 20 21  1  0
 21 22  2  0
  1 24  1  0
  3 25  1  0
  4 26  1  0
 14 27  1  0
 15 28  1  6
 15 29  1  0
 16 30  1  0
 18 31  1  0
 19 32  1  0
 20 33  1  0
 21 34  1  0
 22 35  1  0
 23 36  1  1
 23 37  1  0
 23 38  1  0
M  END
>  <Pose ID>  (54)
28

>  <Score>  (54)
-7.552861213684082

>  <smiles>  (54)
Cc1coc(-c2nnc3[nH]cncc2-3)c1CNc1ccccc1

$$$$

     RDKit          3D

 40 42  0  0  0  0  0  0  0  0999 V2000
   26.4100    7.0420   -8.4390 C   0  0  0  0  0  0  0  0  0  0  0  0
   27.2800    7.0720   -9.5210 N   0  0  0  0  0  0  0  0  0  0  0  0
   27.6710    8.2870  -10.0650 C   0  0  0  0  0  0  0  0  0  0  0  0
   28.5100    7.9620  -11.0960 N   0  0  0  0  0  0  0  0  0  0  0  0
   25.9360    8.2280   -7.8960 N   0  0  0  0  0  0  0  0  0  0  0  0
   26.3250    9.4460   -8.4380 C   0  0  0  0  0  0  0  0  0  0  0  0
   27.1960    9.4770   -9.5230 C   0  0  0  0  0  0  0  0  0  0  0  0
   29.0910    9.0980  -11.8050 C   0  0  0  0  0  0  0  0  0  0  0  0
   30.4420    9.2140  -12.1140 N   0  0  0  0  0  0  0  0  0  0  0  0
   30.9040   10.3330  -12.7970 C   0  0  0  0  0  0  0  0  0  0  0  0
   30.0170   11.3360  -13.1690 C   0  0  0  0  0  0  0  0  0  0  0  0
   28.6670   11.2210  -12.8580 C   0  0  0  0  0  0  0  0  0  0  0  0
   28.2010   10.0840  -12.2010 C   0  0  0  0  0  0  0  0  0  0  0  0
   27.5860   10.6830  -10.0580 O   0  0  0  0  0  0  0  0  0  0  0  0
   27.1650   11.8360   -9.5940 C   0  0  0  0  0  0  0  0  0  0  0  0
   28.0210   12.7010   -8.9230 C   0  0  0  0  0  0  0  0  0  0  0  0
   27.5410   13.9070   -8.4230 C   0  0  0  0  0  0  0  0  0  0  0  0
   26.2020   14.2440   -8.5950 C   0  0  0  0  0  0  0  0  0  0  0  0
   25.3460   13.3780   -9.2640 N   0  0  0  0  0  0  0  0  0  0  0  0
   25.8290   12.1720   -9.7640 C   0  0  0  0  0  0  0  0  0  0  0  0
   27.7090   12.3250  -13.2340 C   0  0  1  0  0  0  0  0  0  0  0  0
   28.1110   13.7240  -12.7850 C   0  0  1  0  0  0  0  0  0  0  0  0
   29.0990   13.7270  -11.6000 C   0  0  1  0  0  0  0  0  0  0  0  0
   26.0965    6.0779   -8.0122 H   0  0  0  0  0  0  0  0  0  0  0  0
   28.7166    6.9863  -11.3532 H   0  0  0  0  0  0  0  0  0  0  0  0
   25.9450   10.3854   -8.0101 H   0  0  0  0  0  0  0  0  0  0  0  0
   31.9722   10.4246  -13.0431 H   0  0  0  0  0  0  0  0  0  0  0  0
   30.3832   12.2212  -13.7097 H   0  0  0  0  0  0  0  0  0  0  0  0
   27.1263    9.9689  -11.9965 H   0  0  0  0  0  0  0  0  0  0  0  0
   29.0789   12.4318   -8.7872 H   0  0  0  0  0  0  0  0  0  0  0  0
   28.2184   14.5927   -7.8929 H   0  0  0  0  0  0  0  0  0  0  0  0
   25.8206   15.1975   -8.2007 H   0  0  0  0  0  0  0  0  0  0  0  0
   25.1521   11.4855  -10.2937 H   0  0  0  0  0  0  0  0  0  0  0  0
   27.6164   12.3345  -14.3301 H   0  0  0  0  0  0  0  0  0  0  0  0
   26.7680   12.0990  -12.7111 H   0  0  0  0  0  0  0  0  0  0  0  0
   28.5830   14.2404  -13.6338 H   0  0  0  0  0  0  0  0  0  0  0  0
   27.1959   14.2317  -12.4461 H   0  0  0  0  0  0  0  0  0  0  0  0
   28.5373   13.7253  -10.6543 H   0  0  0  0  0  0  0  0  0  0  0  0
   29.7348   12.8308  -11.6504 H   0  0  0  0  0  0  0  0  0  0  0  0
   29.7294   14.6271  -11.6504 H   0  0  0  0  0  0  0  0  0  0  0  0
  1  2  2  0
  1  5  1  0
  2  3  1  0
  3  4  1  0
  3  7  2  0
  5  6  2  0
  6  7  1  0
  7 14  1  0
  4  8  1  0
  8 13  1  0
  8  9  2  0
  9 10  1  0
 10 11  2  0
 11 12  1  0
 12 21  1  0
 12 13  2  0
 21 22  1  0
 22 23  1  0
 14 15  1  0
 15 20  1  0
 15 16  2  0
 16 17  1  0
 17 18  2  0
 18 19  1  0
 19 20  2  0
  1 24  1  0
  4 25  1  0
  6 26  1  0
 10 27  1  0
 11 28  1  0
 13 29  1  0
 16 30  1  0
 17 31  1  0
 18 32  1  0
 20 33  1  0
 21 34  1  6
 21 35  1  0
 22 36  1  6
 22 37  1  0
 23 38  1  1
 23 39  1  0
 23 40  1  0
M  END
>  <Pose ID>  (55)
89

>  <Score>  (55)
-7.548855304718018

>  <smiles>  (55)
CCCc1ccnc(Nc2ncncc2Oc2cccnc2)c1

$$$$

     RDKit          3D

 34 36  0  0  0  0  0  0  0  0999 V2000
   26.4030    7.0420   -8.4420 C   0  0  0  0  0  0  0  0  0  0  0  0
   27.2770    7.0760   -9.5210 N   0  0  0  0  0  0  0  0  0  0  0  0
   27.6620    8.2950  -10.0650 C   0  0  0  0  0  0  0  0  0  0  0  0
   28.5070    7.9740  -11.0950 N   0  0  0  0  0  0  0  0  0  0  0  0
   25.9170    8.2240   -7.9040 N   0  0  0  0  0  0  0  0  0  0  0  0
   26.3020    9.4450   -8.4470 C   0  0  0  0  0  0  0  0  0  0  0  0
   27.1770    9.4810   -9.5280 C   0  0  0  0  0  0  0  0  0  0  0  0
   29.0830    9.1120  -11.8030 C   0  0  0  0  0  0  0  0  0  0  0  0
   30.4330    9.2390  -12.1070 N   0  0  0  0  0  0  0  0  0  0  0  0
   30.8890   10.3600  -12.7900 C   0  0  0  0  0  0  0  0  0  0  0  0
   29.9970   11.3540  -13.1670 C   0  0  0  0  0  0  0  0  0  0  0  0
   28.6470   11.2300  -12.8620 C   0  0  0  0  0  0  0  0  0  0  0  0
   28.1870   10.0920  -12.2040 C   0  0  0  0  0  0  0  0  0  0  0  0
   27.5600   10.6900  -10.0630 O   0  0  0  0  0  0  0  0  0  0  0  0
   27.1100   11.8080   -9.5340 C   0  0  0  0  0  0  0  0  0  0  0  0
   27.9890   12.7130   -8.9510 C   0  0  0  0  0  0  0  0  0  0  0  0
   27.5150   13.9260   -8.4660 C   0  0  0  0  0  0  0  0  0  0  0  0
   26.1630   14.2320   -8.5640 N   0  0  0  0  0  0  0  0  0  0  0  0
   25.2850   13.3270   -9.1470 C   0  0  0  0  0  0  0  0  0  0  0  0
   25.7590   12.1140   -9.6320 C   0  0  0  0  0  0  0  0  0  0  0  0
   27.6810   12.3250  -13.2420 C   0  0  1  0  0  0  0  0  0  0  0  0
   26.0960    6.0764   -8.0138 H   0  0  0  0  0  0  0  0  0  0  0  0
   28.7201    6.9993  -11.3509 H   0  0  0  0  0  0  0  0  0  0  0  0
   25.9146   10.3826   -8.0217 H   0  0  0  0  0  0  0  0  0  0  0  0
   31.9574   10.4595  -13.0319 H   0  0  0  0  0  0  0  0  0  0  0  0
   30.3590   12.2409  -13.7078 H   0  0  0  0  0  0  0  0  0  0  0  0
   27.1125    9.9703  -12.0022 H   0  0  0  0  0  0  0  0  0  0  0  0
   29.0589   12.4694   -8.8735 H   0  0  0  0  0  0  0  0  0  0  0  0
   28.2096   14.6435   -8.0048 H   0  0  0  0  0  0  0  0  0  0  0  0
   24.2151   13.5704   -9.2247 H   0  0  0  0  0  0  0  0  0  0  0  0
   25.0644   11.3966  -10.0933 H   0  0  0  0  0  0  0  0  0  0  0  0
   27.2735   12.7870  -12.3307 H   0  0  0  0  0  0  0  0  0  0  0  0
   28.2062   13.0873  -13.8362 H   0  0  0  0  0  0  0  0  0  0  0  0
   26.8591   11.8990  -13.8362 H   0  0  0  0  0  0  0  0  0  0  0  0
  1  2  2  0
  1  5  1  0
  2  3  1  0
  3  4  1  0
  3  7  2  0
  5  6  2  0
  6  7  1  0
  7 14  1  0
  4  8  1  0
  8 13  1  0
  8  9  2  0
  9 10  1  0
 10 11  2  0
 11 12  1  0
 12 21  1  0
 12 13  2  0
 14 15  1  0
 15 20  1  0
 15 16  2  0
 16 17  1  0
 17 18  2  0
 18 19  1  0
 19 20  2  0
  1 22  1  0
  4 23  1  0
  6 24  1  0
 10 25  1  0
 11 26  1  0
 13 27  1  0
 16 28  1  0
 17 29  1  0
 19 30  1  0
 20 31  1  0
 21 32  1  1
 21 33  1  0
 21 34  1  0
M  END
>  <Pose ID>  (56)
68

>  <Score>  (56)
-7.5449652671813965

>  <smiles>  (56)
Cc1ccnc(Nc2ncncc2Oc2ccncc2)c1

$$$$

     RDKit          3D

 38 40  0  0  0  0  0  0  0  0999 V2000
   26.4100    7.0420   -8.4320 C   0  0  0  0  0  0  0  0  0  0  0  0
   27.2510    7.0950   -9.5360 N   0  0  0  0  0  0  0  0  0  0  0  0
   27.6300    8.3240  -10.0620 C   0  0  0  0  0  0  0  0  0  0  0  0
   28.4410    8.0200  -11.1210 N   0  0  0  0  0  0  0  0  0  0  0  0
   25.9480    8.2170   -7.8540 N   0  0  0  0  0  0  0  0  0  0  0  0
   26.3260    9.4460   -8.3780 C   0  0  0  0  0  0  0  0  0  0  0  0
   27.1690    9.5000   -9.4830 C   0  0  0  0  0  0  0  0  0  0  0  0
   29.0060    9.1690  -11.8200 C   0  0  0  0  0  0  0  0  0  0  0  0
   30.3480    9.2940  -12.1610 N   0  0  0  0  0  0  0  0  0  0  0  0
   30.7930   10.4270  -12.8310 C   0  0  0  0  0  0  0  0  0  0  0  0
   29.8980   11.4370  -13.1580 C   0  0  0  0  0  0  0  0  0  0  0  0
   28.5560   11.3160  -12.8160 C   0  0  0  0  0  0  0  0  0  0  0  0
   28.1060   10.1660  -12.1720 C   0  0  0  0  0  0  0  0  0  0  0  0
   27.5460   10.7200  -10.0020 O   0  0  0  0  0  0  0  0  0  0  0  0
   27.1470   11.8560   -9.4880 C   0  0  0  0  0  0  0  0  0  0  0  0
   28.0150   12.7200   -8.8330 C   0  0  0  0  0  0  0  0  0  0  0  0
   27.5400   13.9120   -8.3010 C   0  0  0  0  0  0  0  0  0  0  0  0
   26.1960   14.2420   -8.4240 C   0  0  0  0  0  0  0  0  0  0  0  0
   25.3250   13.3760   -9.0780 C   0  0  0  0  0  0  0  0  0  0  0  0
   25.7840   12.2010   -9.6440 C   0  0  0  0  0  0  0  0  0  0  0  0
   27.5880   12.4270  -13.1430 C   0  0  1  0  0  0  0  0  0  0  0  0
   23.8600   13.7250   -9.1730 C   0  0  1  0  0  0  0  0  0  0  0  0
   26.1099    6.0692   -8.0155 H   0  0  0  0  0  0  0  0  0  0  0  0
   28.6385    7.0496  -11.4044 H   0  0  0  0  0  0  0  0  0  0  0  0
   25.9591   10.3762   -7.9196 H   0  0  0  0  0  0  0  0  0  0  0  0
   31.8546   10.5239  -13.1024 H   0  0  0  0  0  0  0  0  0  0  0  0
   30.2512   12.3337  -13.6882 H   0  0  0  0  0  0  0  0  0  0  0  0
   27.0368   10.0475  -11.9421 H   0  0  0  0  0  0  0  0  0  0  0  0
   29.0794   12.4602   -8.7354 H   0  0  0  0  0  0  0  0  0  0  0  0
   28.2284   14.5952   -7.7820 H   0  0  0  0  0  0  0  0  0  0  0  0
   25.8207   15.1872   -8.0047 H   0  0  0  0  0  0  0  0  0  0  0  0
   25.1015   11.5462  -10.2056 H   0  0  0  0  0  0  0  0  0  0  0  0
   27.2053   12.8663  -12.2100 H   0  0  0  0  0  0  0  0  0  0  0  0
   28.1038   13.2022  -13.7287 H   0  0  0  0  0  0  0  0  0  0  0  0
   26.7495   12.0222  -13.7287 H   0  0  0  0  0  0  0  0  0  0  0  0
   23.4405   13.8249   -8.1610 H   0  0  0  0  0  0  0  0  0  0  0  0
   23.7439   14.6759   -9.7136 H   0  0  0  0  0  0  0  0  0  0  0  0
   23.3276   12.9285   -9.7136 H   0  0  0  0  0  0  0  0  0  0  0  0
  1  2  2  0
  1  5  1  0
  2  3  1  0
  3  4  1  0
  3  7  2  0
  5  6  2  0
  6  7  1  0
  7 14  1  0
  4  8  1  0
  8 13  1  0
  8  9  2  0
  9 10  1  0
 10 11  2  0
 11 12  1  0
 12 21  1  0
 12 13  2  0
 14 15  1  0
 15 20  1  0
 15 16  2  0
 16 17  1  0
 17 18  2  0
 18 19  1  0
 19 20  2  0
 19 22  1  0
  1 23  1  0
  4 24  1  0
  6 25  1  0
 10 26  1  0
 11 27  1  0
 13 28  1  0
 16 29  1  0
 17 30  1  0
 18 31  1  0
 20 32  1  0
 21 33  1  1
 21 34  1  0
 21 35  1  0
 22 36  1  1
 22 37  1  0
 22 38  1  0
M  END
>  <Pose ID>  (57)
110

>  <Score>  (57)
-7.536208629608154

>  <smiles>  (57)
Cc1cccc(Oc2cncnc2Nc2cc(C)ccn2)c1

$$$$

     RDKit          3D

 40 42  0  0  0  0  0  0  0  0999 V2000
   26.4080    7.0430   -8.4410 C   0  0  0  0  0  0  0  0  0  0  0  0
   27.2840    7.0920   -9.5160 N   0  0  0  0  0  0  0  0  0  0  0  0
   27.6650    8.3160  -10.0470 C   0  0  0  0  0  0  0  0  0  0  0  0
   28.5130    8.0100  -11.0770 N   0  0  0  0  0  0  0  0  0  0  0  0
   25.9190    8.2190   -7.8880 N   0  0  0  0  0  0  0  0  0  0  0  0
   26.2980    9.4450   -8.4170 C   0  0  0  0  0  0  0  0  0  0  0  0
   27.1750    9.4960   -9.4960 C   0  0  0  0  0  0  0  0  0  0  0  0
   29.0860    9.1580  -11.7710 C   0  0  0  0  0  0  0  0  0  0  0  0
   30.4370    9.2910  -12.0720 N   0  0  0  0  0  0  0  0  0  0  0  0
   30.8910   10.4220  -12.7410 C   0  0  0  0  0  0  0  0  0  0  0  0
   29.9960   11.4190  -13.1080 C   0  0  0  0  0  0  0  0  0  0  0  0
   28.6460   11.2870  -12.8060 C   0  0  0  0  0  0  0  0  0  0  0  0
   28.1880   10.1390  -12.1620 C   0  0  0  0  0  0  0  0  0  0  0  0
   27.5550   10.7110  -10.0180 O   0  0  0  0  0  0  0  0  0  0  0  0
   27.1190   11.8550   -9.5440 C   0  0  0  0  0  0  0  0  0  0  0  0
   27.9630   12.7230   -8.8600 C   0  0  0  0  0  0  0  0  0  0  0  0
   27.4670   13.9180   -8.3520 C   0  0  0  0  0  0  0  0  0  0  0  0
   26.1260   14.2430   -8.5280 C   0  0  0  0  0  0  0  0  0  0  0  0
   25.2830   13.3750   -9.2100 N   0  0  0  0  0  0  0  0  0  0  0  0
   25.7810   12.1790   -9.7190 C   0  0  0  0  0  0  0  0  0  0  0  0
   27.6780   12.3850  -13.1770 C   0  0  1  0  0  0  0  0  0  0  0  0
   28.0630   13.7840  -12.7120 C   0  0  1  0  0  0  0  0  0  0  0  0
   30.4900   12.6450  -13.8350 C   0  0  1  0  0  0  0  0  0  0  0  0
   26.1007    6.0715   -8.0265 H   0  0  0  0  0  0  0  0  0  0  0  0
   28.7308    7.0390  -11.3429 H   0  0  0  0  0  0  0  0  0  0  0  0
   25.9050   10.3763   -7.9832 H   0  0  0  0  0  0  0  0  0  0  0  0
   31.9596   10.5274  -12.9799 H   0  0  0  0  0  0  0  0  0  0  0  0
   27.1135   10.0113  -11.9639 H   0  0  0  0  0  0  0  0  0  0  0  0
   29.0230   12.4640   -8.7210 H   0  0  0  0  0  0  0  0  0  0  0  0
   28.1340   14.6057   -7.8115 H   0  0  0  0  0  0  0  0  0  0  0  0
   25.7327   15.1886   -8.1266 H   0  0  0  0  0  0  0  0  0  0  0  0
   25.1144   11.4910  -10.2597 H   0  0  0  0  0  0  0  0  0  0  0  0
   27.5914   12.4042  -14.2734 H   0  0  0  0  0  0  0  0  0  0  0  0
   26.7364   12.1441  -12.6619 H   0  0  0  0  0  0  0  0  0  0  0  0
   28.0717   13.8155  -11.6125 H   0  0  0  0  0  0  0  0  0  0  0  0
   29.0636   14.0349  -13.0939 H   0  0  0  0  0  0  0  0  0  0  0  0
   27.3317   14.5115  -13.0939 H   0  0  0  0  0  0  0  0  0  0  0  0
   30.7969   13.4066  -13.1030 H   0  0  0  0  0  0  0  0  0  0  0  0
   31.3497   12.3755  -14.4661 H   0  0  0  0  0  0  0  0  0  0  0  0
   29.6836   13.0469  -14.4661 H   0  0  0  0  0  0  0  0  0  0  0  0
  1  2  2  0
  1  5  1  0
  2  3  1  0
  3  4  1  0
  3  7  2  0
  5  6  2  0
  6  7  1  0
  7 14  1  0
  4  8  1  0
  8 13  1  0
  8  9  2  0
  9 10  1  0
 10 11  2  0
 11 23  1  0
 11 12  1  0
 12 21  1  0
 12 13  2  0
 21 22  1  0
 14 15  1  0
 15 20  1  0
 15 16  2  0
 16 17  1  0
 17 18  2  0
 18 19  1  0
 19 20  2  0
  1 24  1  0
  4 25  1  0
  6 26  1  0
 10 27  1  0
 13 28  1  0
 16 29  1  0
 17 30  1  0
 18 31  1  0
 20 32  1  0
 21 33  1  6
 21 34  1  0
 22 35  1  1
 22 36  1  0
 22 37  1  0
 23 38  1  1
 23 39  1  0
 23 40  1  0
M  END
>  <Pose ID>  (58)
90

>  <Score>  (58)
-7.529512405395508

>  <smiles>  (58)
CCc1cc(Nc2ncncc2Oc2cccnc2)ncc1C

$$$$

     RDKit          3D

 34 36  0  0  0  0  0  0  0  0999 V2000
   26.4030    7.0420   -8.4390 C   0  0  0  0  0  0  0  0  0  0  0  0
   27.2640    7.0930   -9.5280 N   0  0  0  0  0  0  0  0  0  0  0  0
   27.6460    8.3210  -10.0540 C   0  0  0  0  0  0  0  0  0  0  0  0
   28.4780    8.0170  -11.0990 N   0  0  0  0  0  0  0  0  0  0  0  0
   25.9250    8.2150   -7.8750 N   0  0  0  0  0  0  0  0  0  0  0  0
   26.3050    9.4450   -8.4010 C   0  0  0  0  0  0  0  0  0  0  0  0
   27.1680    9.4980   -9.4910 C   0  0  0  0  0  0  0  0  0  0  0  0
   29.0480    9.1650  -11.7930 C   0  0  0  0  0  0  0  0  0  0  0  0
   30.3950    9.2960  -12.1110 N   0  0  0  0  0  0  0  0  0  0  0  0
   30.8450   10.4270  -12.7800 C   0  0  0  0  0  0  0  0  0  0  0  0
   29.9500   11.4290  -13.1290 C   0  0  0  0  0  0  0  0  0  0  0  0
   28.6030   11.3020  -12.8110 C   0  0  0  0  0  0  0  0  0  0  0  0
   28.1490   10.1530  -12.1680 C   0  0  0  0  0  0  0  0  0  0  0  0
   27.5470   10.7160  -10.0100 O   0  0  0  0  0  0  0  0  0  0  0  0
   27.1060   11.8250   -9.4560 C   0  0  0  0  0  0  0  0  0  0  0  0
   27.9930   12.7180   -8.8670 C   0  0  0  0  0  0  0  0  0  0  0  0
   27.5270   13.9240   -8.3560 C   0  0  0  0  0  0  0  0  0  0  0  0
   26.1740   14.2340   -8.4330 N   0  0  0  0  0  0  0  0  0  0  0  0
   25.2880   13.3400   -9.0220 C   0  0  0  0  0  0  0  0  0  0  0  0
   25.7540   12.1350   -9.5340 C   0  0  0  0  0  0  0  0  0  0  0  0
   23.8200   13.6780   -9.1050 C   0  0  1  0  0  0  0  0  0  0  0  0
   26.1000    6.0696   -8.0235 H   0  0  0  0  0  0  0  0  0  0  0  0
   28.6859    7.0466  -11.3746 H   0  0  0  0  0  0  0  0  0  0  0  0
   25.9234   10.3756   -7.9555 H   0  0  0  0  0  0  0  0  0  0  0  0
   31.9106   10.5287  -13.0333 H   0  0  0  0  0  0  0  0  0  0  0  0
   30.3074   12.3248  -13.6580 H   0  0  0  0  0  0  0  0  0  0  0  0
   27.8976   12.1065  -13.0664 H   0  0  0  0  0  0  0  0  0  0  0  0
   27.0766   10.0287  -11.9572 H   0  0  0  0  0  0  0  0  0  0  0  0
   29.0631   12.4708   -8.8051 H   0  0  0  0  0  0  0  0  0  0  0  0
   28.2284   14.6325   -7.8911 H   0  0  0  0  0  0  0  0  0  0  0  0
   25.0530   11.4273  -10.0006 H   0  0  0  0  0  0  0  0  0  0  0  0
   23.4076   13.7729   -8.0897 H   0  0  0  0  0  0  0  0  0  0  0  0
   23.6925   14.6290   -9.6429 H   0  0  0  0  0  0  0  0  0  0  0  0
   23.2895   12.8785   -9.6429 H   0  0  0  0  0  0  0  0  0  0  0  0
  1  2  2  0
  1  5  1  0
  2  3  1  0
  3  4  1  0
  3  7  2  0
  5  6  2  0
  6  7  1  0
  7 14  1  0
  4  8  1  0
  8 13  1  0
  8  9  2  0
  9 10  1  0
 10 11  2  0
 11 12  1  0
 12 13  2  0
 14 15  1  0
 15 20  1  0
 15 16  2  0
 16 17  1  0
 17 18  2  0
 18 19  1  0
 19 20  2  0
 19 21  1  0
  1 22  1  0
  4 23  1  0
  6 24  1  0
 10 25  1  0
 11 26  1  0
 12 27  1  0
 13 28  1  0
 16 29  1  0
 17 30  1  0
 20 31  1  0
 21 32  1  1
 21 33  1  0
 21 34  1  0
M  END
>  <Pose ID>  (59)
70

>  <Score>  (59)
-7.5279388427734375

>  <smiles>  (59)
Cc1cc(Oc2cncnc2Nc2ccccn2)ccn1

$$$$

     RDKit          3D

 31 33  0  0  0  0  0  0  0  0999 V2000
   27.7720    8.3480  -10.2820 C   0  0  0  0  0  0  0  0  0  0  0  0
   27.4340    7.1140   -9.7400 N   0  0  0  0  0  0  0  0  0  0  0  0
   26.5390    7.0420   -8.6820 C   0  0  0  0  0  0  0  0  0  0  0  0
   25.9870    8.2050   -8.1580 C   0  0  0  0  0  0  0  0  0  0  0  0
   26.3290    9.4380   -8.6950 C   0  0  0  0  0  0  0  0  0  0  0  0
   27.1940    9.5240   -9.7410 C   0  0  0  0  0  0  0  0  0  0  0  0
   28.6730    8.1740  -11.3080 N   0  0  0  0  0  0  0  0  0  0  0  0
   29.1100    9.4630  -12.0230 C   0  0  0  0  0  0  0  0  0  0  0  0
   30.4750    9.6340  -12.2120 N   0  0  0  0  0  0  0  0  0  0  0  0
   30.9540   10.7690  -12.8570 C   0  0  0  0  0  0  0  0  0  0  0  0
   30.0650   11.7330  -13.3160 N   0  0  0  0  0  0  0  0  0  0  0  0
   28.6960   11.5620  -13.1300 C   0  0  0  0  0  0  0  0  0  0  0  0
   28.2190   10.4290  -12.4830 C   0  0  0  0  0  0  0  0  0  0  0  0
   27.9000   12.4240  -13.5420 O   0  0  0  0  0  0  0  0  0  0  0  0
   27.3480   10.8760  -10.1010 C   0  0  0  0  0  0  0  0  0  0  0  0
   26.3910   11.5690  -10.7440 N   0  0  0  0  0  0  0  0  0  0  0  0
   26.8220   12.9190  -10.9610 C   0  0  0  0  0  0  0  0  0  0  0  0
   28.0780   13.0540  -10.4280 O   0  0  0  0  0  0  0  0  0  0  0  0
   28.3960   11.8030   -9.8950 C   0  0  0  0  0  0  0  0  0  0  0  0
   25.7350   10.6960   -8.1110 C   0  0  1  0  0  0  0  0  0  0  0  0
   26.2663    6.0643   -8.2579 H   0  0  0  0  0  0  0  0  0  0  0  0
   25.2792    8.1480   -7.3179 H   0  0  0  0  0  0  0  0  0  0  0  0
   29.0292    7.2459  -11.5776 H   0  0  0  0  0  0  0  0  0  0  0  0
   32.0358   10.9035  -13.0037 H   0  0  0  0  0  0  0  0  0  0  0  0
   30.4188   12.5741  -13.7938 H   0  0  0  0  0  0  0  0  0  0  0  0
   27.1374   10.2950  -12.3341 H   0  0  0  0  0  0  0  0  0  0  0  0
   26.2460   13.7081  -11.4665 H   0  0  0  0  0  0  0  0  0  0  0  0
   29.3400   11.5688   -9.3811 H   0  0  0  0  0  0  0  0  0  0  0  0
   25.7620   10.6387   -7.0128 H   0  0  0  0  0  0  0  0  0  0  0  0
   26.3171   11.5667   -8.4472 H   0  0  0  0  0  0  0  0  0  0  0  0
   24.6928   10.7997   -8.4472 H   0  0  0  0  0  0  0  0  0  0  0  0
  1  7  1  0
  1  6  1  0
  1  2  2  0
  2  3  1  0
  3  4  2  0
  4  5  1  0
  5  6  2  0
  5 20  1  0
  6 15  1  0
  7  8  1  0
  8 13  2  0
  8  9  1  0
  9 10  2  0
 10 11  1  0
 11 12  1  0
 12 14  2  0
 12 13  1  0
 15 16  1  0
 15 19  2  0
 16 17  2  0
 17 18  1  0
 18 19  1  0
  3 21  1  0
  4 22  1  0
  7 23  1  0
 10 24  1  0
 11 25  1  0
 13 26  1  0
 17 27  1  0
 19 28  1  0
 20 29  1  1
 20 30  1  0
 20 31  1  0
M  END
>  <Pose ID>  (60)
58

>  <Score>  (60)
-7.5031256675720215

>  <smiles>  (60)
Cc1ccnc(Nc2cc(=O)[nH]cn2)c1-c1cocn1

$$$$

     RDKit          3D

 40 42  0  0  0  0  0  0  0  0999 V2000
   26.4070    7.0420   -8.4390 C   0  0  0  0  0  0  0  0  0  0  0  0
   27.2860    7.0760   -9.5130 N   0  0  0  0  0  0  0  0  0  0  0  0
   27.6680    8.2930  -10.0620 C   0  0  0  0  0  0  0  0  0  0  0  0
   28.5190    7.9730  -11.0830 N   0  0  0  0  0  0  0  0  0  0  0  0
   25.9130    8.2250   -7.9080 N   0  0  0  0  0  0  0  0  0  0  0  0
   26.2930    9.4450   -8.4530 C   0  0  0  0  0  0  0  0  0  0  0  0
   27.1720    9.4800   -9.5310 C   0  0  0  0  0  0  0  0  0  0  0  0
   29.0920    9.1090  -11.7940 C   0  0  0  0  0  0  0  0  0  0  0  0
   30.4440    9.2420  -12.0920 N   0  0  0  0  0  0  0  0  0  0  0  0
   30.8970   10.3620  -12.7780 C   0  0  0  0  0  0  0  0  0  0  0  0
   30.0020   11.3500  -13.1640 C   0  0  0  0  0  0  0  0  0  0  0  0
   28.6510   11.2220  -12.8650 C   0  0  0  0  0  0  0  0  0  0  0  0
   28.1930   10.0830  -12.2030 C   0  0  0  0  0  0  0  0  0  0  0  0
   27.5530   10.6880  -10.0710 O   0  0  0  0  0  0  0  0  0  0  0  0
   27.1140   11.8380   -9.6160 C   0  0  0  0  0  0  0  0  0  0  0  0
   27.9520   12.7190   -8.9440 C   0  0  0  0  0  0  0  0  0  0  0  0
   27.4520   13.9200   -8.4570 C   0  0  0  0  0  0  0  0  0  0  0  0
   26.1120   14.2410   -8.6420 C   0  0  0  0  0  0  0  0  0  0  0  0
   25.2720   13.3590   -9.3140 N   0  0  0  0  0  0  0  0  0  0  0  0
   25.7740   12.1570   -9.8010 C   0  0  0  0  0  0  0  0  0  0  0  0
   25.5680   15.5440   -8.1130 C   0  0  1  0  0  0  0  0  0  0  0  0
   25.4120   16.4700   -9.3000 C   0  0  1  0  0  0  0  0  0  0  0  0
   24.3580   15.3280   -7.1660 C   0  0  1  0  0  0  0  0  0  0  0  0
   26.1019    6.0767   -8.0087 H   0  0  0  0  0  0  0  0  0  0  0  0
   28.7396    6.9982  -11.3321 H   0  0  0  0  0  0  0  0  0  0  0  0
   25.8994   10.3823   -8.0328 H   0  0  0  0  0  0  0  0  0  0  0  0
   31.9660   10.4658  -13.0154 H   0  0  0  0  0  0  0  0  0  0  0  0
   30.3626   12.2358  -13.7075 H   0  0  0  0  0  0  0  0  0  0  0  0
   27.9452   12.0163  -13.1494 H   0  0  0  0  0  0  0  0  0  0  0  0
   27.1183    9.9570  -12.0051 H   0  0  0  0  0  0  0  0  0  0  0  0
   29.0123   12.4653   -8.7974 H   0  0  0  0  0  0  0  0  0  0  0  0
   28.1162   14.6170   -7.9250 H   0  0  0  0  0  0  0  0  0  0  0  0
   25.1106   11.4589  -10.3325 H   0  0  0  0  0  0  0  0  0  0  0  0
   26.2538   16.0583   -7.4237 H   0  0  0  0  0  0  0  0  0  0  0  0
   25.2391   17.4964   -8.9441 H   0  0  0  0  0  0  0  0  0  0  0  0
   26.3274   16.4425   -9.9093 H   0  0  0  0  0  0  0  0  0  0  0  0
   24.5561   16.1441   -9.9093 H   0  0  0  0  0  0  0  0  0  0  0  0
   24.6952   15.3882   -6.1207 H   0  0  0  0  0  0  0  0  0  0  0  0
   23.6027   16.1055   -7.3530 H   0  0  0  0  0  0  0  0  0  0  0  0
   23.9183   14.3372   -7.3530 H   0  0  0  0  0  0  0  0  0  0  0  0
  1  2  2  0
  1  5  1  0
  2  3  1  0
  3  4  1  0
  3  7  2  0
  5  6  2  0
  6  7  1  0
  7 14  1  0
  4  8  1  0
  8 13  1  0
  8  9  2  0
  9 10  1  0
 10 11  2  0
 11 12  1  0
 12 13  2  0
 14 15  1  0
 15 20  1  0
 15 16  2  0
 16 17  1  0
 17 18  2  0
 18 19  1  0
 18 21  1  0
 19 20  2  0
 21 22  1  0
 21 23  1  0
  1 24  1  0
  4 25  1  0
  6 26  1  0
 10 27  1  0
 11 28  1  0
 12 29  1  0
 13 30  1  0
 16 31  1  0
 17 32  1  0
 20 33  1  0
 21 34  1  1
 22 35  1  1
 22 36  1  0
 22 37  1  0
 23 38  1  1
 23 39  1  0
 23 40  1  0
M  END
>  <Pose ID>  (61)
97

>  <Score>  (61)
-7.486265659332275

>  <smiles>  (61)
CC(C)c1ccc(Oc2cncnc2Nc2ccccn2)cn1

$$$$

     RDKit          3D

 38 40  0  0  0  0  0  0  0  0999 V2000
   26.4090    7.0420   -8.4350 C   0  0  0  0  0  0  0  0  0  0  0  0
   27.2520    7.0980   -9.5380 N   0  0  0  0  0  0  0  0  0  0  0  0
   27.6390    8.3270  -10.0540 C   0  0  0  0  0  0  0  0  0  0  0  0
   28.4500    8.0250  -11.1160 N   0  0  0  0  0  0  0  0  0  0  0  0
   25.9560    8.2160   -7.8490 N   0  0  0  0  0  0  0  0  0  0  0  0
   26.3420    9.4460   -8.3640 C   0  0  0  0  0  0  0  0  0  0  0  0
   27.1870    9.5020   -9.4680 C   0  0  0  0  0  0  0  0  0  0  0  0
   29.0230    9.1750  -11.8060 C   0  0  0  0  0  0  0  0  0  0  0  0
   30.3660    9.2920  -12.1450 N   0  0  0  0  0  0  0  0  0  0  0  0
   30.8200   10.4270  -12.8070 C   0  0  0  0  0  0  0  0  0  0  0  0
   29.9310   11.4450  -13.1270 C   0  0  0  0  0  0  0  0  0  0  0  0
   28.5880   11.3320  -12.7880 C   0  0  0  0  0  0  0  0  0  0  0  0
   28.1300   10.1800  -12.1510 C   0  0  0  0  0  0  0  0  0  0  0  0
   27.5720   10.7220   -9.9790 O   0  0  0  0  0  0  0  0  0  0  0  0
   27.1790   11.8580   -9.4570 C   0  0  0  0  0  0  0  0  0  0  0  0
   28.0530   12.7110   -8.7960 C   0  0  0  0  0  0  0  0  0  0  0  0
   27.5860   13.9030   -8.2560 C   0  0  0  0  0  0  0  0  0  0  0  0
   26.2430   14.2430   -8.3780 C   0  0  0  0  0  0  0  0  0  0  0  0
   25.3690   13.3880   -9.0390 C   0  0  0  0  0  0  0  0  0  0  0  0
   25.8200   12.2140   -9.6130 C   0  0  0  0  0  0  0  0  0  0  0  0
   25.7360   15.5390   -7.7940 C   0  0  1  0  0  0  0  0  0  0  0  0
   23.9070   13.7480   -9.1320 C   0  0  1  0  0  0  0  0  0  0  0  0
   26.1008    6.0683   -8.0265 H   0  0  0  0  0  0  0  0  0  0  0  0
   28.6413    7.0554  -11.4063 H   0  0  0  0  0  0  0  0  0  0  0  0
   25.9802   10.3753   -7.8998 H   0  0  0  0  0  0  0  0  0  0  0  0
   31.8824   10.5188  -13.0771 H   0  0  0  0  0  0  0  0  0  0  0  0
   30.2909   12.3432  -13.6502 H   0  0  0  0  0  0  0  0  0  0  0  0
   27.8891   12.1487  -13.0215 H   0  0  0  0  0  0  0  0  0  0  0  0
   27.0601   10.0672  -11.9215 H   0  0  0  0  0  0  0  0  0  0  0  0
   29.1155   12.4429   -8.6999 H   0  0  0  0  0  0  0  0  0  0  0  0
   28.2787   14.5779   -7.7319 H   0  0  0  0  0  0  0  0  0  0  0  0
   25.1337   11.5686  -10.1808 H   0  0  0  0  0  0  0  0  0  0  0  0
   25.7590   15.4801   -6.6958 H   0  0  0  0  0  0  0  0  0  0  0  0
   26.3761   16.3679   -8.1303 H   0  0  0  0  0  0  0  0  0  0  0  0
   24.7033   15.7135   -8.1303 H   0  0  0  0  0  0  0  0  0  0  0  0
   23.4896   13.8508   -8.1195 H   0  0  0  0  0  0  0  0  0  0  0  0
   23.7974   14.7000   -9.6722 H   0  0  0  0  0  0  0  0  0  0  0  0
   23.3679   12.9558   -9.6722 H   0  0  0  0  0  0  0  0  0  0  0  0
  1  2  2  0
  1  5  1  0
  2  3  1  0
  3  4  1  0
  3  7  2  0
  5  6  2  0
  6  7  1  0
  7 14  1  0
  4  8  1  0
  8 13  1  0
  8  9  2  0
  9 10  1  0
 10 11  2  0
 11 12  1  0
 12 13  2  0
 14 15  1  0
 15 20  1  0
 15 16  2  0
 16 17  1  0
 17 18  2  0
 18 19  1  0
 18 21  1  0
 19 20  2  0
 19 22  1  0
  1 23  1  0
  4 24  1  0
  6 25  1  0
 10 26  1  0
 11 27  1  0
 12 28  1  0
 13 29  1  0
 16 30  1  0
 17 31  1  0
 20 32  1  0
 21 33  1  1
 21 34  1  0
 21 35  1  0
 22 36  1  1
 22 37  1  0
 22 38  1  0
M  END
>  <Pose ID>  (62)
117

>  <Score>  (62)
-7.463003635406494

>  <smiles>  (62)
Cc1ccc(Oc2cncnc2Nc2ccccn2)cc1C

$$$$

     RDKit          3D

 34 36  0  0  0  0  0  0  0  0999 V2000
   26.4000    7.0420   -8.4430 C   0  0  0  0  0  0  0  0  0  0  0  0
   27.2830    7.0890   -9.5150 N   0  0  0  0  0  0  0  0  0  0  0  0
   27.6760    8.3150  -10.0370 C   0  0  0  0  0  0  0  0  0  0  0  0
   28.5280    8.0060  -11.0650 N   0  0  0  0  0  0  0  0  0  0  0  0
   25.9140    8.2180   -7.8910 N   0  0  0  0  0  0  0  0  0  0  0  0
   26.3060    9.4460   -8.4130 C   0  0  0  0  0  0  0  0  0  0  0  0
   27.1900    9.4940   -9.4870 C   0  0  0  0  0  0  0  0  0  0  0  0
   29.1130    9.1520  -11.7510 C   0  0  0  0  0  0  0  0  0  0  0  0
   30.4660    9.2800  -12.0440 N   0  0  0  0  0  0  0  0  0  0  0  0
   30.9310   10.4080  -12.7060 C   0  0  0  0  0  0  0  0  0  0  0  0
   30.0440   11.4100  -13.0760 C   0  0  0  0  0  0  0  0  0  0  0  0
   28.6910   11.2870  -12.7830 C   0  0  0  0  0  0  0  0  0  0  0  0
   28.2230   10.1400  -12.1460 C   0  0  0  0  0  0  0  0  0  0  0  0
   27.5810   10.7100  -10.0020 O   0  0  0  0  0  0  0  0  0  0  0  0
   27.1310   11.8210   -9.4590 C   0  0  0  0  0  0  0  0  0  0  0  0
   28.0070   12.7150   -8.8560 C   0  0  0  0  0  0  0  0  0  0  0  0
   27.5340   13.9230   -8.3580 C   0  0  0  0  0  0  0  0  0  0  0  0
   26.1840   14.2350   -8.4610 N   0  0  0  0  0  0  0  0  0  0  0  0
   25.3070   13.3410   -9.0640 C   0  0  0  0  0  0  0  0  0  0  0  0
   25.7810   12.1330   -9.5640 C   0  0  0  0  0  0  0  0  0  0  0  0
   30.5510   12.6360  -13.7960 C   0  0  1  0  0  0  0  0  0  0  0  0
   26.0862    6.0712   -8.0318 H   0  0  0  0  0  0  0  0  0  0  0  0
   28.7398    7.0345  -11.3336 H   0  0  0  0  0  0  0  0  0  0  0  0
   25.9178   10.3785   -7.9775 H   0  0  0  0  0  0  0  0  0  0  0  0
   32.0017   10.5080  -12.9373 H   0  0  0  0  0  0  0  0  0  0  0  0
   27.9923   12.0925  -13.0531 H   0  0  0  0  0  0  0  0  0  0  0  0
   27.1465   10.0176  -11.9560 H   0  0  0  0  0  0  0  0  0  0  0  0
   29.0753   12.4665   -8.7728 H   0  0  0  0  0  0  0  0  0  0  0  0
   28.2279   14.6318   -7.8825 H   0  0  0  0  0  0  0  0  0  0  0  0
   24.2384   13.5889   -9.1457 H   0  0  0  0  0  0  0  0  0  0  0  0
   25.0879   11.4252  -10.0421 H   0  0  0  0  0  0  0  0  0  0  0  0
   30.8632   13.3909  -13.0594 H   0  0  0  0  0  0  0  0  0  0  0  0
   31.4096   12.3620  -14.4267 H   0  0  0  0  0  0  0  0  0  0  0  0
   29.7497   13.0485  -14.4267 H   0  0  0  0  0  0  0  0  0  0  0  0
  1  2  2  0
  1  5  1  0
  2  3  1  0
  3  4  1  0
  3  7  2  0
  5  6  2  0
  6  7  1  0
  7 14  1  0
  4  8  1  0
  8 13  1  0
  8  9  2  0
  9 10  1  0
 10 11  2  0
 11 21  1  0
 11 12  1  0
 12 13  2  0
 14 15  1  0
 15 20  1  0
 15 16  2  0
 16 17  1  0
 17 18  2  0
 18 19  1  0
 19 20  2  0
  1 22  1  0
  4 23  1  0
  6 24  1  0
 10 25  1  0
 12 26  1  0
 13 27  1  0
 16 28  1  0
 17 29  1  0
 19 30  1  0
 20 31  1  0
 21 32  1  1
 21 33  1  0
 21 34  1  0
M  END
>  <Pose ID>  (63)
69

>  <Score>  (63)
-7.462064743041992

>  <smiles>  (63)
Cc1ccc(Nc2ncncc2Oc2ccncc2)nc1

$$$$

     RDKit          3D

 38 40  0  0  0  0  0  0  0  0999 V2000
   26.4100    7.0420   -8.4410 C   0  0  0  0  0  0  0  0  0  0  0  0
   27.2730    7.0720   -9.5280 N   0  0  0  0  0  0  0  0  0  0  0  0
   27.6610    8.2890  -10.0730 C   0  0  0  0  0  0  0  0  0  0  0  0
   28.4930    7.9640  -11.1090 N   0  0  0  0  0  0  0  0  0  0  0  0
   25.9370    8.2280   -7.8970 N   0  0  0  0  0  0  0  0  0  0  0  0
   26.3240    9.4460   -8.4390 C   0  0  0  0  0  0  0  0  0  0  0  0
   27.1890    9.4780   -9.5290 C   0  0  0  0  0  0  0  0  0  0  0  0
   29.0720    9.0980  -11.8210 C   0  0  0  0  0  0  0  0  0  0  0  0
   30.4200    9.2170  -12.1390 N   0  0  0  0  0  0  0  0  0  0  0  0
   30.8780   10.3360  -12.8230 C   0  0  0  0  0  0  0  0  0  0  0  0
   29.9890   11.3370  -13.1900 C   0  0  0  0  0  0  0  0  0  0  0  0
   28.6410   11.2230  -12.8720 C   0  0  0  0  0  0  0  0  0  0  0  0
   28.1790   10.0870  -12.2120 C   0  0  0  0  0  0  0  0  0  0  0  0
   27.5760   10.6860  -10.0660 O   0  0  0  0  0  0  0  0  0  0  0  0
   27.1660   11.8330   -9.5850 C   0  0  0  0  0  0  0  0  0  0  0  0
   28.0210   12.7110   -8.9310 C   0  0  0  0  0  0  0  0  0  0  0  0
   27.5350   13.9140   -8.4340 C   0  0  0  0  0  0  0  0  0  0  0  0
   26.1930   14.2400   -8.5910 C   0  0  0  0  0  0  0  0  0  0  0  0
   25.3360   13.3600   -9.2440 C   0  0  0  0  0  0  0  0  0  0  0  0
   25.8060   12.1740   -9.7750 C   0  0  0  0  0  0  0  0  0  0  0  0
   27.6800   12.3260  -13.2410 C   0  0  1  0  0  0  0  0  0  0  0  0
   27.9100   13.4540  -12.2650 C   0  0  1  0  0  0  0  0  0  0  0  0
   26.1010    6.0780   -8.0107 H   0  0  0  0  0  0  0  0  0  0  0  0
   28.6962    6.9880  -11.3680 H   0  0  0  0  0  0  0  0  0  0  0  0
   25.9474   10.3851   -8.0074 H   0  0  0  0  0  0  0  0  0  0  0  0
   31.9450   10.4289  -13.0738 H   0  0  0  0  0  0  0  0  0  0  0  0
   30.3521   12.2218  -13.7334 H   0  0  0  0  0  0  0  0  0  0  0  0
   27.1056    9.9730  -12.0002 H   0  0  0  0  0  0  0  0  0  0  0  0
   29.0832   12.4537   -8.8065 H   0  0  0  0  0  0  0  0  0  0  0  0
   28.2126   14.6087   -7.9161 H   0  0  0  0  0  0  0  0  0  0  0  0
   25.8088   15.1933   -8.1991 H   0  0  0  0  0  0  0  0  0  0  0  0
   24.2694   13.6118   -9.3390 H   0  0  0  0  0  0  0  0  0  0  0  0
   25.1347   11.5068  -10.3355 H   0  0  0  0  0  0  0  0  0  0  0  0
   27.8744   12.6690  -14.2679 H   0  0  0  0  0  0  0  0  0  0  0  0
   26.6393   11.9725  -13.1954 H   0  0  0  0  0  0  0  0  0  0  0  0
   27.8319   13.0709  -11.2368 H   0  0  0  0  0  0  0  0  0  0  0  0
   28.9129   13.8772  -12.4234 H   0  0  0  0  0  0  0  0  0  0  0  0
   27.1528   14.2361  -12.4234 H   0  0  0  0  0  0  0  0  0  0  0  0
  1  2  2  0
  1  5  1  0
  2  3  1  0
  3  4  1  0
  3  7  2  0
  5  6  2  0
  6  7  1  0
  7 14  1  0
  4  8  1  0
  8 13  1  0
  8  9  2  0
  9 10  1  0
 10 11  2  0
 11 12  1  0
 12 21  1  0
 12 13  2  0
 21 22  1  0
 14 15  1  0
 15 20  1  0
 15 16  2  0
 16 17  1  0
 17 18  2  0
 18 19  1  0
 19 20  2  0
  1 23  1  0
  4 24  1  0
  6 25  1  0
 10 26  1  0
 11 27  1  0
 13 28  1  0
 16 29  1  0
 17 30  1  0
 18 31  1  0
 19 32  1  0
 20 33  1  0
 21 34  1  6
 21 35  1  0
 22 36  1  1
 22 37  1  0
 22 38  1  0
M  END
>  <Pose ID>  (64)
109

>  <Score>  (64)
-7.452843189239502

>  <smiles>  (64)
CCc1ccnc(Nc2ncncc2Oc2ccccc2)c1

$$$$

     RDKit          3D

 40 42  0  0  0  0  0  0  0  0999 V2000
   26.3990    7.0420   -8.4420 C   0  0  0  0  0  0  0  0  0  0  0  0
   27.2790    7.0980   -9.5140 N   0  0  0  0  0  0  0  0  0  0  0  0
   27.6490    8.3270  -10.0470 C   0  0  0  0  0  0  0  0  0  0  0  0
   28.5060    8.0270  -11.0730 N   0  0  0  0  0  0  0  0  0  0  0  0
   25.8920    8.2120   -7.8970 N   0  0  0  0  0  0  0  0  0  0  0  0
   26.2610    9.4430   -8.4290 C   0  0  0  0  0  0  0  0  0  0  0  0
   27.1420    9.5010   -9.5030 C   0  0  0  0  0  0  0  0  0  0  0  0
   29.0690    9.1810  -11.7680 C   0  0  0  0  0  0  0  0  0  0  0  0
   30.4190    9.3300  -12.0620 N   0  0  0  0  0  0  0  0  0  0  0  0
   30.8610   10.4640  -12.7330 C   0  0  0  0  0  0  0  0  0  0  0  0
   29.9560   11.4470  -13.1080 C   0  0  0  0  0  0  0  0  0  0  0  0
   28.6070   11.3000  -12.8130 C   0  0  0  0  0  0  0  0  0  0  0  0
   28.1600   10.1490  -12.1680 C   0  0  0  0  0  0  0  0  0  0  0  0
   27.5100   10.7200  -10.0260 O   0  0  0  0  0  0  0  0  0  0  0  0
   27.0390   11.8270   -9.4920 C   0  0  0  0  0  0  0  0  0  0  0  0
   27.9000   12.7410   -8.8950 C   0  0  0  0  0  0  0  0  0  0  0  0
   27.4030   13.9420   -8.4030 C   0  0  0  0  0  0  0  0  0  0  0  0
   26.0480   14.2280   -8.5090 N   0  0  0  0  0  0  0  0  0  0  0  0
   25.1880   13.3140   -9.1040 C   0  0  0  0  0  0  0  0  0  0  0  0
   25.6830   12.1120   -9.5960 C   0  0  0  0  0  0  0  0  0  0  0  0
   27.6260   12.3820  -13.1910 C   0  0  1  0  0  0  0  0  0  0  0  0
   27.9910   13.7880  -12.7280 C   0  0  1  0  0  0  0  0  0  0  0  0
   30.4370   12.6770  -13.8370 C   0  0  1  0  0  0  0  0  0  0  0  0
   26.1034    6.0683   -8.0243 H   0  0  0  0  0  0  0  0  0  0  0  0
   28.7363    7.0579  -11.3350 H   0  0  0  0  0  0  0  0  0  0  0  0
   25.8556   10.3711   -7.9998 H   0  0  0  0  0  0  0  0  0  0  0  0
   31.9293   10.5825  -12.9671 H   0  0  0  0  0  0  0  0  0  0  0  0
   27.0861   10.0079  -11.9760 H   0  0  0  0  0  0  0  0  0  0  0  0
   28.9731   12.5138   -8.8122 H   0  0  0  0  0  0  0  0  0  0  0  0
   28.0826   14.6659   -7.9297 H   0  0  0  0  0  0  0  0  0  0  0  0
   24.1149   13.5414   -9.1859 H   0  0  0  0  0  0  0  0  0  0  0  0
   25.0024   11.3875  -10.0670 H   0  0  0  0  0  0  0  0  0  0  0  0
   27.5434   12.3969  -14.2878 H   0  0  0  0  0  0  0  0  0  0  0  0
   26.6853   12.1297  -12.6796 H   0  0  0  0  0  0  0  0  0  0  0  0
   27.9996   13.8213  -11.6285 H   0  0  0  0  0  0  0  0  0  0  0  0
   28.9877   14.0529  -13.1107 H   0  0  0  0  0  0  0  0  0  0  0  0
   27.2490   14.5042  -13.1107 H   0  0  0  0  0  0  0  0  0  0  0  0
   30.7364   13.4427  -13.1062 H   0  0  0  0  0  0  0  0  0  0  0  0
   31.2991   12.4155  -14.4682 H   0  0  0  0  0  0  0  0  0  0  0  0
   29.6262   13.0697  -14.4682 H   0  0  0  0  0  0  0  0  0  0  0  0
  1  2  2  0
  1  5  1  0
  2  3  1  0
  3  4  1  0
  3  7  2  0
  5  6  2  0
  6  7  1  0
  7 14  1  0
  4  8  1  0
  8 13  1  0
  8  9  2  0
  9 10  1  0
 10 11  2  0
 11 23  1  0
 11 12  1  0
 12 21  1  0
 12 13  2  0
 21 22  1  0
 14 15  1  0
 15 20  1  0
 15 16  2  0
 16 17  1  0
 17 18  2  0
 18 19  1  0
 19 20  2  0
  1 24  1  0
  4 25  1  0
  6 26  1  0
 10 27  1  0
 13 28  1  0
 16 29  1  0
 17 30  1  0
 19 31  1  0
 20 32  1  0
 21 33  1  6
 21 34  1  0
 22 35  1  1
 22 36  1  0
 22 37  1  0
 23 38  1  1
 23 39  1  0
 23 40  1  0
M  END
>  <Pose ID>  (65)
76

>  <Score>  (65)
-7.443554878234863

>  <smiles>  (65)
CCc1cc(Nc2ncncc2Oc2ccncc2)ncc1C

$$$$

     RDKit          3D

 40 42  0  0  0  0  0  0  0  0999 V2000
   26.3980    7.0420   -8.4300 C   0  0  0  0  0  0  0  0  0  0  0  0
   27.2510    7.1960   -9.5140 N   0  0  0  0  0  0  0  0  0  0  0  0
   27.4710    8.4560  -10.0520 C   0  0  0  0  0  0  0  0  0  0  0  0
   28.3440    8.2520  -11.0870 N   0  0  0  0  0  0  0  0  0  0  0  0
   25.7630    8.1500   -7.8820 N   0  0  0  0  0  0  0  0  0  0  0  0
   25.9830    9.4130   -8.4210 C   0  0  0  0  0  0  0  0  0  0  0  0
   26.8380    9.5670   -9.5070 C   0  0  0  0  0  0  0  0  0  0  0  0
   28.7630    9.4570  -11.7930 C   0  0  0  0  0  0  0  0  0  0  0  0
   30.0830    9.7610  -12.1050 N   0  0  0  0  0  0  0  0  0  0  0  0
   30.3860   10.9330  -12.7850 C   0  0  0  0  0  0  0  0  0  0  0  0
   29.3690   11.8060  -13.1510 C   0  0  0  0  0  0  0  0  0  0  0  0
   28.0470   11.5060  -12.8390 C   0  0  0  0  0  0  0  0  0  0  0  0
   27.7430   10.3140  -12.1840 C   0  0  0  0  0  0  0  0  0  0  0  0
   27.0570   10.8170  -10.0390 O   0  0  0  0  0  0  0  0  0  0  0  0
   26.4910   11.8960   -9.5570 C   0  0  0  0  0  0  0  0  0  0  0  0
   27.2140   12.8800   -8.8960 C   0  0  0  0  0  0  0  0  0  0  0  0
   26.5670   14.0040   -8.3980 C   0  0  0  0  0  0  0  0  0  0  0  0
   25.1930   14.1420   -8.5590 C   0  0  0  0  0  0  0  0  0  0  0  0
   24.4680   13.1570   -9.2170 C   0  0  0  0  0  0  0  0  0  0  0  0
   25.0990   12.0480   -9.7510 C   0  0  0  0  0  0  0  0  0  0  0  0
   27.0510   15.0920   -7.7250 N   0  0  0  0  0  0  0  0  0  0  0  0
   27.5020   16.2770   -8.4690 C   0  0  1  0  0  0  0  0  0  0  0  0
   27.4260   14.9290   -6.2600 C   0  0  1  0  0  0  0  0  0  0  0  0
   26.2245    6.0426   -8.0045 H   0  0  0  0  0  0  0  0  0  0  0  0
   28.6807    7.3143  -11.3482 H   0  0  0  0  0  0  0  0  0  0  0  0
   25.4805   10.2906   -7.9882 H   0  0  0  0  0  0  0  0  0  0  0  0
   31.4309   11.1703  -13.0339 H   0  0  0  0  0  0  0  0  0  0  0  0
   29.6095   12.7354  -13.6881 H   0  0  0  0  0  0  0  0  0  0  0  0
   27.2438   12.2076  -13.1085 H   0  0  0  0  0  0  0  0  0  0  0  0
   26.6949   10.0521  -11.9768 H   0  0  0  0  0  0  0  0  0  0  0  0
   28.3007   12.7694   -8.7665 H   0  0  0  0  0  0  0  0  0  0  0  0
   24.6799   15.0317   -8.1651 H   0  0  0  0  0  0  0  0  0  0  0  0
   23.3772   13.2602   -9.3148 H   0  0  0  0  0  0  0  0  0  0  0  0
   24.5276   11.2974  -10.3168 H   0  0  0  0  0  0  0  0  0  0  0  0
   27.8012   17.0631   -7.7601 H   0  0  0  0  0  0  0  0  0  0  0  0
   28.3605   16.0078   -9.1018 H   0  0  0  0  0  0  0  0  0  0  0  0
   26.6817   16.6468   -9.1018 H   0  0  0  0  0  0  0  0  0  0  0  0
   26.6003   15.2879   -5.6280 H   0  0  0  0  0  0  0  0  0  0  0  0
   27.6164   13.8669   -6.0462 H   0  0  0  0  0  0  0  0  0  0  0  0
   28.3325   15.5143   -6.0462 H   0  0  0  0  0  0  0  0  0  0  0  0
  1  2  2  0
  1  5  1  0
  2  3  1  0
  3  4  1  0
  3  7  2  0
  5  6  2  0
  6  7  1  0
  7 14  1  0
  4  8  1  0
  8 13  1  0
  8  9  2  0
  9 10  1  0
 10 11  2  0
 11 12  1  0
 12 13  2  0
 14 15  1  0
 15 20  1  0
 15 16  2  0
 16 17  1  0
 17 18  2  0
 17 21  1  0
 18 19  1  0
 19 20  2  0
 21 22  1  0
 21 23  1  0
  1 24  1  0
  4 25  1  0
  6 26  1  0
 10 27  1  0
 11 28  1  0
 12 29  1  0
 13 30  1  0
 16 31  1  0
 18 32  1  0
 19 33  1  0
 20 34  1  0
 22 35  1  1
 22 36  1  0
 22 37  1  0
 23 38  1  1
 23 39  1  0
 23 40  1  0
M  END
>  <Pose ID>  (66)
107

>  <Score>  (66)
-7.43270206451416

>  <smiles>  (66)
CN(C)c1cccc(Oc2cncnc2Nc2ccccn2)c1

$$$$

     RDKit          3D

 38 40  0  0  0  0  0  0  0  0999 V2000
   28.2820    8.1470  -10.7270 C   0  0  0  0  0  0  0  0  0  0  0  0
   27.6320    7.3340   -9.9180 N   0  0  0  0  0  0  0  0  0  0  0  0
   26.4950    7.8370   -9.2950 C   0  0  0  0  0  0  0  0  0  0  0  0
   25.7900    7.0510   -8.4760 O   0  0  0  0  0  0  0  0  0  0  0  0
   27.8980    9.4540  -11.0010 C   0  0  0  0  0  0  0  0  0  0  0  0
   26.8140    9.9470  -10.4080 C   0  0  0  0  0  0  0  0  0  0  0  0
   26.0860    9.1420   -9.5400 C   0  0  0  0  0  0  0  0  0  0  0  0
   28.6510   10.2300  -11.8710 C   0  0  0  0  0  0  0  0  0  0  0  0
   29.7860    9.7020  -12.4690 C   0  0  0  0  0  0  0  0  0  0  0  0
   30.1710    8.3950  -12.1970 C   0  0  0  0  0  0  0  0  0  0  0  0
   29.4570    7.6150  -11.3080 C   0  0  0  0  0  0  0  0  0  0  0  0
   25.9840    7.4350   -7.1140 C   0  0  1  0  0  0  0  0  0  0  0  0
   24.9610    9.6360   -8.9220 N   0  0  0  0  0  0  0  0  0  0  0  0
   24.7620   10.7760   -8.1420 C   0  0  0  0  0  0  0  0  0  0  0  0
   25.8220   11.6750   -8.1870 N   0  0  0  0  0  0  0  0  0  0  0  0
   25.7640   12.8560   -7.4580 C   0  0  0  0  0  0  0  0  0  0  0  0
   24.6450   13.1400   -6.6830 C   0  0  0  0  0  0  0  0  0  0  0  0
   23.5850   12.2430   -6.6370 C   0  0  0  0  0  0  0  0  0  0  0  0
   23.6340   11.0740   -7.3910 C   0  0  0  0  0  0  0  0  0  0  0  0
   26.9140   13.8290   -7.5060 C   0  0  1  0  0  0  0  0  0  0  0  0
   26.8700   14.7890   -6.3090 C   0  0  1  0  0  0  0  0  0  0  0  0
   26.4969   10.9821  -10.6029 H   0  0  0  0  0  0  0  0  0  0  0  0
   28.3475   11.2651  -12.0867 H   0  0  0  0  0  0  0  0  0  0  0  0
   30.3813   10.3183  -13.1587 H   0  0  0  0  0  0  0  0  0  0  0  0
   31.0567    7.9754  -12.6965 H   0  0  0  0  0  0  0  0  0  0  0  0
   29.7958    6.5991  -11.0566 H   0  0  0  0  0  0  0  0  0  0  0  0
   25.5879    6.6509   -6.4520 H   0  0  0  0  0  0  0  0  0  0  0  0
   27.0584    7.5699   -6.9205 H   0  0  0  0  0  0  0  0  0  0  0  0
   25.4551    8.3799   -6.9205 H   0  0  0  0  0  0  0  0  0  0  0  0
   24.1159    9.0633   -9.0591 H   0  0  0  0  0  0  0  0  0  0  0  0
   24.5990   14.0754   -6.1060 H   0  0  0  0  0  0  0  0  0  0  0  0
   22.7093   12.4561   -6.0063 H   0  0  0  0  0  0  0  0  0  0  0  0
   22.7766   10.3849   -7.3915 H   0  0  0  0  0  0  0  0  0  0  0  0
   27.8606   13.2691   -7.4839 H   0  0  0  0  0  0  0  0  0  0  0  0
   26.8374   14.4181   -8.4318 H   0  0  0  0  0  0  0  0  0  0  0  0
   26.8965   14.2104   -5.3738 H   0  0  0  0  0  0  0  0  0  0  0  0
   27.7382   15.4634   -6.3477 H   0  0  0  0  0  0  0  0  0  0  0  0
   25.9438   15.3811   -6.3477 H   0  0  0  0  0  0  0  0  0  0  0  0
  1 11  1  0
  1  5  1  0
  1  2  2  0
  2  3  1  0
  3  7  2  0
  3  4  1  0
  5  8  1  0
  5  6  2  0
  6  7  1  0
  7 13  1  0
  8  9  2  0
  9 10  1  0
 10 11  2  0
 13 14  1  0
 14 15  2  0
 14 19  1  0
 15 16  1  0
 16 20  1  0
 16 17  2  0
 17 18  1  0
 18 19  2  0
 20 21  1  0
  4 12  1  0
  6 22  1  0
  8 23  1  0
  9 24  1  0
 10 25  1  0
 11 26  1  0
 12 27  1  1
 12 28  1  0
 12 29  1  0
 13 30  1  0
 17 31  1  0
 18 32  1  0
 19 33  1  0
 20 34  1  6
 20 35  1  0
 21 36  1  1
 21 37  1  0
 21 38  1  0
M  END
>  <Pose ID>  (67)
147

>  <Score>  (67)
-7.416352272033691

>  <smiles>  (67)
CCc1cccc(Nc2cc3ccccc3nc2OC)n1

$$$$

     RDKit          3D

 40 42  0  0  0  0  0  0  0  0999 V2000
   26.4010    7.0420   -8.4370 C   0  0  0  0  0  0  0  0  0  0  0  0
   27.2570    7.1050   -9.5280 N   0  0  0  0  0  0  0  0  0  0  0  0
   27.6180    8.3390  -10.0580 C   0  0  0  0  0  0  0  0  0  0  0  0
   28.4510    8.0460  -11.1060 N   0  0  0  0  0  0  0  0  0  0  0  0
   25.9100    8.2080   -7.8700 N   0  0  0  0  0  0  0  0  0  0  0  0
   26.2700    9.4430   -8.3980 C   0  0  0  0  0  0  0  0  0  0  0  0
   27.1270    9.5090   -9.4920 C   0  0  0  0  0  0  0  0  0  0  0  0
   29.0010    9.2040  -11.8030 C   0  0  0  0  0  0  0  0  0  0  0  0
   30.3440    9.3530  -12.1270 N   0  0  0  0  0  0  0  0  0  0  0  0
   30.7740   10.4910  -12.7970 C   0  0  0  0  0  0  0  0  0  0  0  0
   29.8630   11.4800  -13.1420 C   0  0  0  0  0  0  0  0  0  0  0  0
   28.5210   11.3340  -12.8180 C   0  0  0  0  0  0  0  0  0  0  0  0
   28.0850   10.1780  -12.1730 C   0  0  0  0  0  0  0  0  0  0  0  0
   27.4860   10.7310  -10.0120 O   0  0  0  0  0  0  0  0  0  0  0  0
   27.0310   11.8340   -9.4570 C   0  0  0  0  0  0  0  0  0  0  0  0
   27.9080   12.7410   -8.8710 C   0  0  0  0  0  0  0  0  0  0  0  0
   27.4260   13.9380   -8.3580 C   0  0  0  0  0  0  0  0  0  0  0  0
   26.0690   14.2290   -8.4300 N   0  0  0  0  0  0  0  0  0  0  0  0
   25.1930   13.3230   -9.0140 C   0  0  0  0  0  0  0  0  0  0  0  0
   25.6740   12.1240   -9.5280 C   0  0  0  0  0  0  0  0  0  0  0  0
   27.5350   12.4220  -13.1630 C   0  0  1  0  0  0  0  0  0  0  0  0
   27.9140   13.8220  -12.6960 C   0  0  1  0  0  0  0  0  0  0  0  0
   23.7200   13.6390   -9.0910 C   0  0  1  0  0  0  0  0  0  0  0  0
   26.1118    6.0653   -8.0217 H   0  0  0  0  0  0  0  0  0  0  0  0
   28.6727    7.0787  -11.3817 H   0  0  0  0  0  0  0  0  0  0  0  0
   25.8771   10.3679   -7.9506 H   0  0  0  0  0  0  0  0  0  0  0  0
   31.8370   10.6087  -13.0544 H   0  0  0  0  0  0  0  0  0  0  0  0
   30.2050   12.3807  -13.6729 H   0  0  0  0  0  0  0  0  0  0  0  0
   27.0154   10.0380  -11.9575 H   0  0  0  0  0  0  0  0  0  0  0  0
   28.9820   12.5103   -8.8141 H   0  0  0  0  0  0  0  0  0  0  0  0
   28.1185   14.6561   -7.8945 H   0  0  0  0  0  0  0  0  0  0  0  0
   24.9810   11.4057   -9.9904 H   0  0  0  0  0  0  0  0  0  0  0  0
   27.4272   12.4473  -14.2574 H   0  0  0  0  0  0  0  0  0  0  0  0
   26.6059   12.1674  -12.6321 H   0  0  0  0  0  0  0  0  0  0  0  0
   27.9221   13.8521  -11.5964 H   0  0  0  0  0  0  0  0  0  0  0  0
   28.9137   14.0776  -13.0772 H   0  0  0  0  0  0  0  0  0  0  0  0
   27.1798   14.5470  -13.0772 H   0  0  0  0  0  0  0  0  0  0  0  0
   23.3102   13.7269   -8.0740 H   0  0  0  0  0  0  0  0  0  0  0  0
   23.5762   14.5884   -9.6276 H   0  0  0  0  0  0  0  0  0  0  0  0
   23.1994   12.8321   -9.6276 H   0  0  0  0  0  0  0  0  0  0  0  0
  1  2  2  0
  1  5  1  0
  2  3  1  0
  3  4  1  0
  3  7  2  0
  5  6  2  0
  6  7  1  0
  7 14  1  0
  4  8  1  0
  8 13  1  0
  8  9  2  0
  9 10  1  0
 10 11  2  0
 11 12  1  0
 12 21  1  0
 12 13  2  0
 21 22  1  0
 14 15  1  0
 15 20  1  0
 15 16  2  0
 16 17  1  0
 17 18  2  0
 18 19  1  0
 19 20  2  0
 19 23  1  0
  1 24  1  0
  4 25  1  0
  6 26  1  0
 10 27  1  0
 11 28  1  0
 13 29  1  0
 16 30  1  0
 17 31  1  0
 20 32  1  0
 21 33  1  6
 21 34  1  0
 22 35  1  1
 22 36  1  0
 22 37  1  0
 23 38  1  1
 23 39  1  0
 23 40  1  0
M  END
>  <Pose ID>  (68)
75

>  <Score>  (68)
-7.378536224365234

>  <smiles>  (68)
CCc1ccnc(Nc2ncncc2Oc2ccnc(C)c2)c1

$$$$

     RDKit          3D

 37 40  0  0  0  0  0  0  0  0999 V2000
   28.2980    8.1550  -10.7510 C   0  0  0  0  0  0  0  0  0  0  0  0
   27.7290    7.0480  -10.1320 N   0  0  0  0  0  0  0  0  0  0  0  0
   26.8170    7.2240   -9.0930 C   0  0  0  0  0  0  0  0  0  0  0  0
   26.4790    8.5060   -8.6760 N   0  0  0  0  0  0  0  0  0  0  0  0
   27.0490    9.6120   -9.2940 C   0  0  0  0  0  0  0  0  0  0  0  0
   27.9190    9.4760  -10.2990 C   0  0  0  0  0  0  0  0  0  0  0  0
   26.8830   10.9240   -9.0590 N   0  0  0  0  0  0  0  0  0  0  0  0
   27.5710   11.5700   -9.8330 N   0  0  0  0  0  0  0  0  0  0  0  0
   28.2390   10.7860  -10.6410 C   0  0  0  0  0  0  0  0  0  0  0  0
   29.1160   11.1950  -11.6630 C   0  0  0  0  0  0  0  0  0  0  0  0
   28.8130   12.2800  -12.4740 C   0  0  0  0  0  0  0  0  0  0  0  0
   29.9930   12.3550  -13.4090 C   0  0  0  0  0  0  0  0  0  0  0  0
   30.7390   11.3690  -13.0970 O   0  0  0  0  0  0  0  0  0  0  0  0
   30.2340   10.6630  -12.1200 C   0  0  0  0  0  0  0  0  0  0  0  0
   27.6130   13.1550  -12.4310 C   0  0  0  0  0  0  0  0  0  0  0  0
   26.5850   12.8160  -12.0530 O   0  0  0  0  0  0  0  0  0  0  0  0
   27.7360   14.5890  -12.9220 N   0  0  0  0  0  0  0  0  0  0  0  0
   26.6740   15.4680  -12.6940 C   0  0  2  0  0  0  0  0  0  0  0  0
   27.0900   16.8860  -13.2180 C   0  0  1  0  0  0  0  0  0  0  0  0
   26.5020   17.4680  -11.8880 C   0  0  1  0  0  0  0  0  0  0  0  0
   26.4980   16.0600  -11.3700 C   0  0  1  0  0  0  0  0  0  0  0  0
   29.2930    7.9820  -11.8710 C   0  0  1  0  0  0  0  0  0  0  0  0
   26.3650    6.3489   -8.6033 H   0  0  0  0  0  0  0  0  0  0  0  0
   25.8052    8.6362   -7.9079 H   0  0  0  0  0  0  0  0  0  0  0  0
   30.1728   13.1031  -14.1952 H   0  0  0  0  0  0  0  0  0  0  0  0
   30.6849    9.7397  -11.7272 H   0  0  0  0  0  0  0  0  0  0  0  0
   28.5845   14.9058  -13.4125 H   0  0  0  0  0  0  0  0  0  0  0  0
   25.8471   14.8461  -13.0676 H   0  0  0  0  0  0  0  0  0  0  0  0
   28.1733   17.0300  -13.3433 H   0  0  0  0  0  0  0  0  0  0  0  0
   26.7728   17.2565  -14.2039 H   0  0  0  0  0  0  0  0  0  0  0  0
   27.1712   18.1555  -11.3499 H   0  0  0  0  0  0  0  0  0  0  0  0
   25.6002   18.0977  -11.8745 H   0  0  0  0  0  0  0  0  0  0  0  0
   25.5492   15.7768  -10.8909 H   0  0  0  0  0  0  0  0  0  0  0  0
   27.2145   15.7927  -10.5793 H   0  0  0  0  0  0  0  0  0  0  0  0
   30.2937    7.8080  -11.4488 H   0  0  0  0  0  0  0  0  0  0  0  0
   29.0017    7.1210  -12.4906 H   0  0  0  0  0  0  0  0  0  0  0  0
   29.3094    8.8908  -12.4906 H   0  0  0  0  0  0  0  0  0  0  0  0
 10 11  1  0
 10 14  2  0
 10  9  1  0
 11 12  2  0
 11 15  1  0
 12 13  1  0
 13 14  1  0
  1 22  1  0
  1  6  2  0
  1  2  1  0
  2  3  2  0
  3  4  1  0
  4  5  1  0
  5  6  1  0
  5  7  2  0
  6  9  1  0
  7  8  1  0
  8  9  2  0
 15 17  1  0
 15 16  2  0
 17 18  1  0
 18 19  1  0
 18 21  1  0
 19 20  1  0
 20 21  1  0
  3 23  1  0
  4 24  1  0
 12 25  1  0
 14 26  1  0
 17 27  1  0
 18 28  1  6
 19 29  1  1
 19 30  1  0
 20 31  1  1
 20 32  1  0
 21 33  1  1
 21 34  1  0
 22 35  1  1
 22 36  1  0
 22 37  1  0
M  END
>  <Pose ID>  (69)
128

>  <Score>  (69)
-7.331605434417725

>  <smiles>  (69)
Cc1nc[nH]c2nnc(-c3cocc3C(=O)NC3CCC3)c1-2

$$$$

     RDKit          3D

 28 30  0  0  0  0  0  0  0  0999 V2000
   27.7790    8.3360  -10.2910 C   0  0  0  0  0  0  0  0  0  0  0  0
   27.4330    7.1060   -9.7460 N   0  0  0  0  0  0  0  0  0  0  0  0
   26.5590    7.0450   -8.6690 C   0  0  0  0  0  0  0  0  0  0  0  0
   26.0370    8.2150   -8.1310 C   0  0  0  0  0  0  0  0  0  0  0  0
   26.3870    9.4440   -8.6710 C   0  0  0  0  0  0  0  0  0  0  0  0
   27.2310    9.5200   -9.7350 C   0  0  0  0  0  0  0  0  0  0  0  0
   28.6550    8.1510  -11.3360 N   0  0  0  0  0  0  0  0  0  0  0  0
   29.0980    9.4350  -12.0570 C   0  0  0  0  0  0  0  0  0  0  0  0
   30.4610    9.5850  -12.2740 N   0  0  0  0  0  0  0  0  0  0  0  0
   30.9450   10.7140  -12.9260 C   0  0  0  0  0  0  0  0  0  0  0  0
   30.0620   11.6940  -13.3630 N   0  0  0  0  0  0  0  0  0  0  0  0
   28.6950   11.5440  -13.1490 C   0  0  0  0  0  0  0  0  0  0  0  0
   28.2130   10.4170  -12.4950 C   0  0  0  0  0  0  0  0  0  0  0  0
   27.9040   12.4200  -13.5420 O   0  0  0  0  0  0  0  0  0  0  0  0
   27.3990   10.8700  -10.0940 C   0  0  0  0  0  0  0  0  0  0  0  0
   26.4400   11.5800  -10.7150 N   0  0  0  0  0  0  0  0  0  0  0  0
   26.8880   12.9240  -10.9370 C   0  0  0  0  0  0  0  0  0  0  0  0
   28.1570   13.0370  -10.4310 O   0  0  0  0  0  0  0  0  0  0  0  0
   28.4660   11.7800   -9.9080 C   0  0  0  0  0  0  0  0  0  0  0  0
   26.2798    6.0706   -8.2417 H   0  0  0  0  0  0  0  0  0  0  0  0
   25.3459    8.1667   -7.2765 H   0  0  0  0  0  0  0  0  0  0  0  0
   25.9777   10.3668   -8.2341 H   0  0  0  0  0  0  0  0  0  0  0  0
   28.9904    7.2181  -11.6156 H   0  0  0  0  0  0  0  0  0  0  0  0
   32.0255   10.8311  -13.0956 H   0  0  0  0  0  0  0  0  0  0  0  0
   30.4191   12.5312  -13.8452 H   0  0  0  0  0  0  0  0  0  0  0  0
   27.1328   10.3004  -12.3232 H   0  0  0  0  0  0  0  0  0  0  0  0
   26.3140   13.7240  -11.4274 H   0  0  0  0  0  0  0  0  0  0  0  0
   29.4168   11.5294   -9.4148 H   0  0  0  0  0  0  0  0  0  0  0  0
  1  7  1  0
  1  2  2  0
  1  6  1  0
  2  3  1  0
  3  4  2  0
  4  5  1  0
  5  6  2  0
  6 15  1  0
  7  8  1  0
  8 13  2  0
  8  9  1  0
  9 10  2  0
 10 11  1  0
 11 12  1  0
 12 14  2  0
 12 13  1  0
 15 16  1  0
 15 19  2  0
 16 17  2  0
 17 18  1  0
 18 19  1  0
  3 20  1  0
  4 21  1  0
  5 22  1  0
  7 23  1  0
 10 24  1  0
 11 25  1  0
 13 26  1  0
 17 27  1  0
 19 28  1  0
M  END
>  <Pose ID>  (70)
57

>  <Score>  (70)
-7.324630260467529

>  <smiles>  (70)
O=c1cc(Nc2ncccc2-c2cocn2)nc[nH]1

$$$$

     RDKit          3D

 38 40  0  0  0  0  0  0  0  0999 V2000
   27.7860    8.2800  -10.3010 C   0  0  0  0  0  0  0  0  0  0  0  0
   27.4210    7.0670   -9.7250 N   0  0  0  0  0  0  0  0  0  0  0  0
   26.4850    7.0420   -8.6980 C   0  0  0  0  0  0  0  0  0  0  0  0
   25.9120    8.2210   -8.2490 C   0  0  0  0  0  0  0  0  0  0  0  0
   26.2790    9.4350   -8.8220 C   0  0  0  0  0  0  0  0  0  0  0  0
   27.2390    9.4650   -9.8280 C   0  0  0  0  0  0  0  0  0  0  0  0
   28.6920    8.3060  -11.3340 N   0  0  0  0  0  0  0  0  0  0  0  0
   29.0680    9.5170  -11.9910 C   0  0  0  0  0  0  0  0  0  0  0  0
   30.4110    9.8440  -12.1500 N   0  0  0  0  0  0  0  0  0  0  0  0
   30.7650   11.0310  -12.7780 C   0  0  0  0  0  0  0  0  0  0  0  0
   29.7790   11.8910  -13.2470 C   0  0  0  0  0  0  0  0  0  0  0  0
   28.4370   11.5630  -13.0870 N   0  0  0  0  0  0  0  0  0  0  0  0
   28.0830   10.3770  -12.4570 C   0  0  0  0  0  0  0  0  0  0  0  0
   27.5070   10.8990  -10.2070 C   0  0  0  0  0  0  0  0  0  0  0  0
   28.8010   11.3680  -10.4060 C   0  0  0  0  0  0  0  0  0  0  0  0
   29.0050   12.6640  -10.8640 C   0  0  0  0  0  0  0  0  0  0  0  0
   27.9170   13.4900  -11.1230 C   0  0  0  0  0  0  0  0  0  0  0  0
   26.4190   11.7240  -10.4660 C   0  0  0  0  0  0  0  0  0  0  0  0
   26.5950   12.9970  -10.8290 N   0  0  0  0  0  0  0  0  0  0  0  0
   28.0810   14.6290  -11.5970 O   0  0  0  0  0  0  0  0  0  0  0  0
   25.8490   10.7180   -8.5700 O   0  0  0  0  0  0  0  0  0  0  0  0
   25.0200   11.1590   -7.4530 C   0  0  1  0  0  0  0  0  0  0  0  0
   30.1640   13.1800  -13.9310 C   0  0  1  0  0  0  0  0  0  0  0  0
   26.1983    6.0837   -8.2404 H   0  0  0  0  0  0  0  0  0  0  0  0
   25.1672    8.1974   -7.4398 H   0  0  0  0  0  0  0  0  0  0  0  0
   29.1151    7.4201  -11.6456 H   0  0  0  0  0  0  0  0  0  0  0  0
   31.8264   11.2907  -12.9043 H   0  0  0  0  0  0  0  0  0  0  0  0
   27.0216   10.1190  -12.3272 H   0  0  0  0  0  0  0  0  0  0  0  0
   29.6616   10.7142  -10.2012 H   0  0  0  0  0  0  0  0  0  0  0  0
   30.0279   13.0366  -11.0217 H   0  0  0  0  0  0  0  0  0  0  0  0
   25.3991   11.3230  -10.3707 H   0  0  0  0  0  0  0  0  0  0  0  0
   25.7840   13.6281  -10.8990 H   0  0  0  0  0  0  0  0  0  0  0  0
   25.5126   10.8970   -6.5050 H   0  0  0  0  0  0  0  0  0  0  0  0
   24.8831   12.2492   -7.5060 H   0  0  0  0  0  0  0  0  0  0  0  0
   24.0395   10.6633   -7.5060 H   0  0  0  0  0  0  0  0  0  0  0  0
   30.3921   13.9435  -13.1727 H   0  0  0  0  0  0  0  0  0  0  0  0
   31.0509   13.0109  -14.5594 H   0  0  0  0  0  0  0  0  0  0  0  0
   29.3297   13.5250  -14.5594 H   0  0  0  0  0  0  0  0  0  0  0  0
  1  7  1  0
  1  6  1  0
  1  2  2  0
  2  3  1  0
  3  4  2  0
  4  5  1  0
  5  6  2  0
  5 21  1  0
  6 14  1  0
  7  8  1  0
  8 13  1  0
  8  9  2  0
  9 10  1  0
 10 11  2  0
 11 23  1  0
 11 12  1  0
 12 13  2  0
 14 18  2  0
 14 15  1  0
 15 16  2  0
 16 17  1  0
 17 20  2  0
 17 19  1  0
 18 19  1  0
 21 22  1  0
  3 24  1  0
  4 25  1  0
  7 26  1  0
 10 27  1  0
 13 28  1  0
 15 29  1  0
 16 30  1  0
 18 31  1  0
 19 32  1  0
 22 33  1  1
 22 34  1  0
 22 35  1  0
 23 36  1  1
 23 37  1  0
 23 38  1  0
M  END
>  <Pose ID>  (71)
11

>  <Score>  (71)
-7.323058605194092

>  <smiles>  (71)
COc1ccnc(Nc2cnc(C)cn2)c1-c1ccc(=O)[nH]c1

$$$$

     RDKit          3D

 34 36  0  0  0  0  0  0  0  0999 V2000
   26.4060    7.0430   -8.4400 C   0  0  0  0  0  0  0  0  0  0  0  0
   27.2920    7.0900   -9.5080 N   0  0  0  0  0  0  0  0  0  0  0  0
   27.6540    8.3130  -10.0590 C   0  0  0  0  0  0  0  0  0  0  0  0
   28.5190    8.0050  -11.0730 N   0  0  0  0  0  0  0  0  0  0  0  0
   25.8850    8.2190   -7.9180 N   0  0  0  0  0  0  0  0  0  0  0  0
   26.2440    9.4430   -8.4670 C   0  0  0  0  0  0  0  0  0  0  0  0
   27.1310    9.4920   -9.5380 C   0  0  0  0  0  0  0  0  0  0  0  0
   29.0750    9.1500  -11.7850 C   0  0  0  0  0  0  0  0  0  0  0  0
   30.4260    9.3070  -12.0740 N   0  0  0  0  0  0  0  0  0  0  0  0
   30.8620   10.4340  -12.7620 C   0  0  0  0  0  0  0  0  0  0  0  0
   29.9500   11.4020  -13.1580 C   0  0  0  0  0  0  0  0  0  0  0  0
   28.5990   11.2480  -12.8680 C   0  0  0  0  0  0  0  0  0  0  0  0
   28.1590   10.1030  -12.2050 C   0  0  0  0  0  0  0  0  0  0  0  0
   27.4910   10.7040  -10.0800 O   0  0  0  0  0  0  0  0  0  0  0  0
   27.0260   11.8470   -9.6340 C   0  0  0  0  0  0  0  0  0  0  0  0
   27.8420   12.7470   -8.9590 C   0  0  0  0  0  0  0  0  0  0  0  0
   27.3140   13.9410   -8.4810 C   0  0  0  0  0  0  0  0  0  0  0  0
   25.9690   14.2340   -8.6770 C   0  0  0  0  0  0  0  0  0  0  0  0
   25.1530   13.3330   -9.3510 N   0  0  0  0  0  0  0  0  0  0  0  0
   25.6820   12.1390   -9.8300 C   0  0  0  0  0  0  0  0  0  0  0  0
   28.2000   14.9190   -7.7500 C   0  0  1  0  0  0  0  0  0  0  0  0
   26.1169    6.0738   -8.0075 H   0  0  0  0  0  0  0  0  0  0  0  0
   28.7604    7.0337  -11.3163 H   0  0  0  0  0  0  0  0  0  0  0  0
   25.8271   10.3739   -8.0552 H   0  0  0  0  0  0  0  0  0  0  0  0
   31.9304   10.5583  -12.9925 H   0  0  0  0  0  0  0  0  0  0  0  0
   30.2966   12.2928  -13.7024 H   0  0  0  0  0  0  0  0  0  0  0  0
   27.8796   12.0269  -13.1607 H   0  0  0  0  0  0  0  0  0  0  0  0
   27.0856    9.9556  -12.0151 H   0  0  0  0  0  0  0  0  0  0  0  0
   28.9058   12.5146   -8.8029 H   0  0  0  0  0  0  0  0  0  0  0  0
   25.5509   15.1785   -8.2988 H   0  0  0  0  0  0  0  0  0  0  0  0
   25.0363   11.4262  -10.3638 H   0  0  0  0  0  0  0  0  0  0  0  0
   28.0779   14.7843   -6.6651 H   0  0  0  0  0  0  0  0  0  0  0  0
   29.2497   14.7399   -8.0259 H   0  0  0  0  0  0  0  0  0  0  0  0
   27.9184   15.9459   -8.0259 H   0  0  0  0  0  0  0  0  0  0  0  0
  1  2  2  0
  1  5  1  0
  2  3  1  0
  3  4  1  0
  3  7  2  0
  5  6  2  0
  6  7  1  0
  7 14  1  0
  4  8  1  0
  8 13  1  0
  8  9  2  0
  9 10  1  0
 10 11  2  0
 11 12  1  0
 12 13  2  0
 14 15  1  0
 15 20  1  0
 15 16  2  0
 16 17  1  0
 17 18  2  0
 17 21  1  0
 18 19  1  0
 19 20  2  0
  1 22  1  0
  4 23  1  0
  6 24  1  0
 10 25  1  0
 11 26  1  0
 12 27  1  0
 13 28  1  0
 16 29  1  0
 18 30  1  0
 20 31  1  0
 21 32  1  1
 21 33  1  0
 21 34  1  0
M  END
>  <Pose ID>  (72)
81

>  <Score>  (72)
-7.28668212890625

>  <smiles>  (72)
Cc1cncc(Oc2cncnc2Nc2ccccn2)c1

$$$$

     RDKit          3D

 34 36  0  0  0  0  0  0  0  0999 V2000
   26.4070    7.0460   -8.4360 C   0  0  0  0  0  0  0  0  0  0  0  0
   27.2240    7.2260   -9.5430 N   0  0  0  0  0  0  0  0  0  0  0  0
   27.3980    8.4940  -10.0820 C   0  0  0  0  0  0  0  0  0  0  0  0
   28.2430    8.3180  -11.1430 N   0  0  0  0  0  0  0  0  0  0  0  0
   25.7660    8.1360   -7.8610 N   0  0  0  0  0  0  0  0  0  0  0  0
   25.9380    9.4060   -8.3970 C   0  0  0  0  0  0  0  0  0  0  0  0
   26.7570    9.5870   -9.5080 C   0  0  0  0  0  0  0  0  0  0  0  0
   28.6110    9.5370  -11.8540 C   0  0  0  0  0  0  0  0  0  0  0  0
   29.9150    9.8720  -12.2030 N   0  0  0  0  0  0  0  0  0  0  0  0
   30.1690   11.0570  -12.8840 C   0  0  0  0  0  0  0  0  0  0  0  0
   29.1210   11.9070  -13.2130 C   0  0  0  0  0  0  0  0  0  0  0  0
   27.8180   11.5750  -12.8630 C   0  0  0  0  0  0  0  0  0  0  0  0
   27.5620   10.3710  -12.2070 C   0  0  0  0  0  0  0  0  0  0  0  0
   26.9310   10.8440  -10.0380 O   0  0  0  0  0  0  0  0  0  0  0  0
   26.3470   11.9100   -9.5430 C   0  0  0  0  0  0  0  0  0  0  0  0
   27.0740   12.8960   -8.8870 C   0  0  0  0  0  0  0  0  0  0  0  0
   26.4230   14.0040   -8.3560 C   0  0  0  0  0  0  0  0  0  0  0  0
   25.0440   14.1240   -8.4800 C   0  0  0  0  0  0  0  0  0  0  0  0
   24.3160   13.1370   -9.1360 N   0  0  0  0  0  0  0  0  0  0  0  0
   24.9690   12.0300   -9.6680 C   0  0  0  0  0  0  0  0  0  0  0  0
   28.5710   12.7630   -8.7510 C   0  0  1  0  0  0  0  0  0  0  0  0
   26.2669    6.0400   -8.0137 H   0  0  0  0  0  0  0  0  0  0  0  0
   28.5945    7.3904  -11.4202 H   0  0  0  0  0  0  0  0  0  0  0  0
   25.4272   10.2683   -7.9437 H   0  0  0  0  0  0  0  0  0  0  0  0
   31.1998   11.3214  -13.1623 H   0  0  0  0  0  0  0  0  0  0  0  0
   29.3229   12.8446  -13.7516 H   0  0  0  0  0  0  0  0  0  0  0  0
   26.9909   12.2595  -13.1025 H   0  0  0  0  0  0  0  0  0  0  0  0
   26.5271   10.0834  -11.9698 H   0  0  0  0  0  0  0  0  0  0  0  0
   26.9991   14.7850   -7.8381 H   0  0  0  0  0  0  0  0  0  0  0  0
   24.5282   14.9997   -8.0593 H   0  0  0  0  0  0  0  0  0  0  0  0
   24.3939   11.2495  -10.1878 H   0  0  0  0  0  0  0  0  0  0  0  0
   28.8416   12.7390   -7.6851 H   0  0  0  0  0  0  0  0  0  0  0  0
   28.9018   11.8319   -9.2344 H   0  0  0  0  0  0  0  0  0  0  0  0
   29.0608   13.6212   -9.2344 H   0  0  0  0  0  0  0  0  0  0  0  0
  1  2  2  0
  1  5  1  0
  2  3  1  0
  3  4  1  0
  3  7  2  0
  5  6  2  0
  6  7  1  0
  7 14  1  0
  4  8  1  0
  8 13  1  0
  8  9  2  0
  9 10  1  0
 10 11  2  0
 11 12  1  0
 12 13  2  0
 14 15  1  0
 15 20  1  0
 15 16  2  0
 16 21  1  0
 16 17  1  0
 17 18  2  0
 18 19  1  0
 19 20  2  0
  1 22  1  0
  4 23  1  0
  6 24  1  0
 10 25  1  0
 11 26  1  0
 12 27  1  0
 13 28  1  0
 17 29  1  0
 18 30  1  0
 20 31  1  0
 21 32  1  1
 21 33  1  0
 21 34  1  0
M  END
>  <Pose ID>  (73)
82

>  <Score>  (73)
-7.265566825866699

>  <smiles>  (73)
Cc1ccncc1Oc1cncnc1Nc1ccccn1

$$$$

     RDKit          3D

 38 41  0  0  0  0  0  0  0  0999 V2000
   28.2710    8.2430  -10.6970 C   0  0  0  0  0  0  0  0  0  0  0  0
   27.6760    7.4210   -9.8590 N   0  0  0  0  0  0  0  0  0  0  0  0
   26.4830    7.8530   -9.2870 C   0  0  0  0  0  0  0  0  0  0  0  0
   25.8280    7.0520   -8.4410 O   0  0  0  0  0  0  0  0  0  0  0  0
   27.7840    9.4980  -11.0470 C   0  0  0  0  0  0  0  0  0  0  0  0
   26.6490    9.9240  -10.5030 C   0  0  0  0  0  0  0  0  0  0  0  0
   25.9710    9.1030   -9.6090 C   0  0  0  0  0  0  0  0  0  0  0  0
   28.4900   10.2920  -11.9420 C   0  0  0  0  0  0  0  0  0  0  0  0
   29.6810    9.8330  -12.4870 C   0  0  0  0  0  0  0  0  0  0  0  0
   30.1690    8.5800  -12.1380 C   0  0  0  0  0  0  0  0  0  0  0  0
   29.5020    7.7860  -11.2240 C   0  0  0  0  0  0  0  0  0  0  0  0
   25.9560    7.5190   -7.0970 C   0  0  1  0  0  0  0  0  0  0  0  0
   24.7920    9.5300   -9.0400 N   0  0  0  0  0  0  0  0  0  0  0  0
   24.4210   10.6940   -8.2970 C   0  0  0  0  0  0  0  0  0  0  0  0
   25.4160   11.6600   -8.3770 N   0  0  0  0  0  0  0  0  0  0  0  0
   25.2620   12.8760   -7.7170 C   0  0  0  0  0  0  0  0  0  0  0  0
   24.1110   13.1210   -6.9780 C   0  0  0  0  0  0  0  0  0  0  0  0
   23.1150   12.1550   -6.8990 N   0  0  0  0  0  0  0  0  0  0  0  0
   23.2710   10.9410   -7.5500 C   0  0  0  0  0  0  0  0  0  0  0  0
   24.1920   14.3510   -6.4360 N   0  0  0  0  0  0  0  0  0  0  0  0
   25.3880   14.9210   -6.8060 C   0  0  0  0  0  0  0  0  0  0  0  0
   25.9360   13.8810   -7.5900 C   0  0  0  0  0  0  0  0  0  0  0  0
   25.9560   16.2780   -6.4690 C   0  0  1  0  0  0  0  0  0  0  0  0
   26.2496   10.9168  -10.7576 H   0  0  0  0  0  0  0  0  0  0  0  0
   28.1050   11.2846  -12.2187 H   0  0  0  0  0  0  0  0  0  0  0  0
   30.2392   10.4620  -13.1961 H   0  0  0  0  0  0  0  0  0  0  0  0
   31.1000    8.2143  -12.5958 H   0  0  0  0  0  0  0  0  0  0  0  0
   29.9202    6.8175  -10.9124 H   0  0  0  0  0  0  0  0  0  0  0  0
   25.7309    6.6979   -6.4005 H   0  0  0  0  0  0  0  0  0  0  0  0
   26.9840    7.8719   -6.9278 H   0  0  0  0  0  0  0  0  0  0  0  0
   25.2516    8.3468   -6.9278 H   0  0  0  0  0  0  0  0  0  0  0  0
   24.0123    8.8715   -9.1790 H   0  0  0  0  0  0  0  0  0  0  0  0
   22.2598   12.3413   -6.3561 H   0  0  0  0  0  0  0  0  0  0  0  0
   22.4870   10.1729   -7.4768 H   0  0  0  0  0  0  0  0  0  0  0  0
   26.9247   13.9754   -8.0629 H   0  0  0  0  0  0  0  0  0  0  0  0
   26.0046   16.3941   -5.3762 H   0  0  0  0  0  0  0  0  0  0  0  0
   26.9672   16.3677   -6.8926 H   0  0  0  0  0  0  0  0  0  0  0  0
   25.3102   17.0613   -6.8926 H   0  0  0  0  0  0  0  0  0  0  0  0
 13  7  1  0
 13 14  1  0
 14 15  1  0
 14 19  2  0
 15 16  2  0
 16 22  1  0
 16 17  1  0
 17 18  1  0
 17 20  2  0
 18 19  1  0
 20 21  1  0
 21 22  2  0
 21 23  1  0
  1 11  1  0
  1  5  1  0
  1  2  2  0
  2  3  1  0
  3  7  2  0
  3  4  1  0
  5  8  1  0
  5  6  2  0
  6  7  1  0
  8  9  2  0
  9 10  1  0
 10 11  2  0
  4 12  1  0
  6 24  1  0
  8 25  1  0
  9 26  1  0
 10 27  1  0
 11 28  1  0
 12 29  1  1
 12 30  1  0
 12 31  1  0
 13 32  1  0
 18 33  1  0
 19 34  1  0
 22 35  1  0
 23 36  1  1
 23 37  1  0
 23 38  1  0
M  END
>  <Pose ID>  (74)
135

>  <Score>  (74)
-7.226988315582275

>  <smiles>  (74)
COc1nc2ccccc2cc1Nc1c[nH]c2nc(C)cc-2n1

$$$$

     RDKit          3D

 38 41  0  0  0  0  0  0  0  0999 V2000
   28.1330    8.0810  -10.4970 C   0  0  0  0  0  0  0  0  0  0  0  0
   27.4540    7.0420   -9.8700 N   0  0  0  0  0  0  0  0  0  0  0  0
   26.3350    7.3130   -9.0930 C   0  0  0  0  0  0  0  0  0  0  0  0
   25.8890    8.6210   -8.9470 N   0  0  0  0  0  0  0  0  0  0  0  0
   26.5640    9.6590   -9.5740 C   0  0  0  0  0  0  0  0  0  0  0  0
   27.6870    9.3910  -10.3500 C   0  0  0  0  0  0  0  0  0  0  0  0
   26.3340   10.9840   -9.5810 N   0  0  0  0  0  0  0  0  0  0  0  0
   27.1800   11.5360  -10.2740 N   0  0  0  0  0  0  0  0  0  0  0  0
   28.0250   10.6740  -10.7790 C   0  0  0  0  0  0  0  0  0  0  0  0
   29.1420   10.7780  -11.6230 C   0  0  0  0  0  0  0  0  0  0  0  0
   29.5120   12.0780  -12.1060 C   0  0  0  0  0  0  0  0  0  0  0  0
   30.5130   12.0340  -12.8320 C   0  0  0  0  0  0  0  0  0  0  0  0
   29.9520    9.8550  -12.1680 O   0  0  0  0  0  0  0  0  0  0  0  0
   30.8150   10.4960  -12.9180 C   0  0  0  0  0  0  0  0  0  0  0  0
   28.7690   13.3450  -11.7690 C   0  0  1  0  0  0  0  0  0  0  0  0
   29.3720   14.0190  -10.6260 N   0  0  0  0  0  0  0  0  0  0  0  0
   28.7060   15.1400   -9.9370 C   0  0  0  0  0  0  0  0  0  0  0  0
   27.3610   15.0900   -9.5880 C   0  0  0  0  0  0  0  0  0  0  0  0
   26.7720   16.1660   -8.9350 C   0  0  0  0  0  0  0  0  0  0  0  0
   27.5270   17.2920   -8.6340 C   0  0  0  0  0  0  0  0  0  0  0  0
   28.8700   17.3440   -8.9830 C   0  0  0  0  0  0  0  0  0  0  0  0
   29.4600   16.2680   -9.6340 C   0  0  0  0  0  0  0  0  0  0  0  0
   25.3130   16.1110   -8.5550 C   0  0  1  0  0  0  0  0  0  0  0  0
   29.0220    7.8676  -11.1087 H   0  0  0  0  0  0  0  0  0  0  0  0
   25.8013    6.4914   -8.5927 H   0  0  0  0  0  0  0  0  0  0  0  0
   25.0571    8.8202   -8.3732 H   0  0  0  0  0  0  0  0  0  0  0  0
   31.0570   12.8670  -13.3013 H   0  0  0  0  0  0  0  0  0  0  0  0
   31.6182   10.0327  -13.5099 H   0  0  0  0  0  0  0  0  0  0  0  0
   28.7951   14.0187  -12.6381 H   0  0  0  0  0  0  0  0  0  0  0  0
   27.7315   13.0839  -11.5131 H   0  0  0  0  0  0  0  0  0  0  0  0
   30.2923   13.7024  -10.2888 H   0  0  0  0  0  0  0  0  0  0  0  0
   26.7631   14.1986   -9.8288 H   0  0  0  0  0  0  0  0  0  0  0  0
   27.0603   18.1442   -8.1182 H   0  0  0  0  0  0  0  0  0  0  0  0
   29.4664   18.2368   -8.7441 H   0  0  0  0  0  0  0  0  0  0  0  0
   30.5241   16.3085   -9.9098 H   0  0  0  0  0  0  0  0  0  0  0  0
   25.2194   16.1075   -7.4590 H   0  0  0  0  0  0  0  0  0  0  0  0
   24.7941   16.9902   -8.9645 H   0  0  0  0  0  0  0  0  0  0  0  0
   24.8617   15.1952   -8.9645 H   0  0  0  0  0  0  0  0  0  0  0  0
 10 13  1  0
 10 11  2  0
 10  9  1  0
 11 12  1  0
 11 15  1  0
 12 14  2  0
 13 14  1  0
  1  6  2  0
  1  2  1  0
  2  3  2  0
  3  4  1  0
  4  5  1  0
  5  6  1  0
  5  7  2  0
  6  9  1  0
  7  8  1  0
  8  9  2  0
 15 16  1  0
 16 17  1  0
 17 22  1  0
 17 18  2  0
 18 19  1  0
 19 20  2  0
 19 23  1  0
 20 21  1  0
 21 22  2  0
  1 24  1  0
  3 25  1  0
  4 26  1  0
 12 27  1  0
 14 28  1  0
 15 29  1  6
 15 30  1  0
 16 31  1  0
 18 32  1  0
 20 33  1  0
 21 34  1  0
 22 35  1  0
 23 36  1  1
 23 37  1  0
 23 38  1  0
M  END
>  <Pose ID>  (75)
34

>  <Score>  (75)
-7.2073283195495605

>  <smiles>  (75)
Cc1cccc(NCc2ccoc2-c2nnc3[nH]cncc2-3)c1

$$$$

     RDKit          3D

 31 33  0  0  0  0  0  0  0  0999 V2000
   27.8040    8.2470  -10.2940 C   0  0  0  0  0  0  0  0  0  0  0  0
   27.4370    7.0460   -9.6970 N   0  0  0  0  0  0  0  0  0  0  0  0
   26.5010    7.0420   -8.6690 C   0  0  0  0  0  0  0  0  0  0  0  0
   25.9310    8.2300   -8.2400 C   0  0  0  0  0  0  0  0  0  0  0  0
   26.3010    9.4330   -8.8350 C   0  0  0  0  0  0  0  0  0  0  0  0
   27.2600    9.4410   -9.8420 C   0  0  0  0  0  0  0  0  0  0  0  0
   28.7090    8.2510  -11.3280 N   0  0  0  0  0  0  0  0  0  0  0  0
   29.0900    9.4490  -12.0060 C   0  0  0  0  0  0  0  0  0  0  0  0
   30.4310    9.7720  -12.1720 N   0  0  0  0  0  0  0  0  0  0  0  0
   30.7880   10.9470  -12.8220 C   0  0  0  0  0  0  0  0  0  0  0  0
   29.8040   11.8000  -13.3050 C   0  0  0  0  0  0  0  0  0  0  0  0
   28.4610   11.4790  -13.1400 N   0  0  0  0  0  0  0  0  0  0  0  0
   28.1060   10.3030  -12.4900 C   0  0  0  0  0  0  0  0  0  0  0  0
   27.5390   10.8010  -10.2480 C   0  0  0  0  0  0  0  0  0  0  0  0
   28.8140   11.3020  -10.4860 C   0  0  0  0  0  0  0  0  0  0  0  0
   28.9790   12.6220  -10.8880 C   0  0  0  0  0  0  0  0  0  0  0  0
   27.8690   13.4420  -11.0520 C   0  0  0  0  0  0  0  0  0  0  0  0
   26.5940   12.9410  -10.8150 N   0  0  0  0  0  0  0  0  0  0  0  0
   26.4260   11.6390  -10.3950 C   0  0  0  0  0  0  0  0  0  0  0  0
   28.0160   14.6240  -11.4120 O   0  0  0  0  0  0  0  0  0  0  0  0
   26.2119    6.0926   -8.1946 H   0  0  0  0  0  0  0  0  0  0  0  0
   25.1868    8.2225   -7.4300 H   0  0  0  0  0  0  0  0  0  0  0  0
   25.8358   10.3751   -8.5093 H   0  0  0  0  0  0  0  0  0  0  0  0
   29.1277    7.3580  -11.6248 H   0  0  0  0  0  0  0  0  0  0  0  0
   31.8499   11.2017  -12.9541 H   0  0  0  0  0  0  0  0  0  0  0  0
   30.0873   12.7305  -13.8186 H   0  0  0  0  0  0  0  0  0  0  0  0
   27.0442   10.0476  -12.3583 H   0  0  0  0  0  0  0  0  0  0  0  0
   29.6926   10.6531  -10.3560 H   0  0  0  0  0  0  0  0  0  0  0  0
   29.9879   13.0177  -11.0763 H   0  0  0  0  0  0  0  0  0  0  0  0
   25.7715   13.5453  -10.9538 H   0  0  0  0  0  0  0  0  0  0  0  0
   25.4178   11.2578  -10.1752 H   0  0  0  0  0  0  0  0  0  0  0  0
  1  7  1  0
  1  6  1  0
  1  2  2  0
  2  3  1  0
  3  4  2  0
  4  5  1  0
  5  6  2  0
  6 14  1  0
  7  8  1  0
  8 13  1  0
  8  9  2  0
  9 10  1  0
 10 11  2  0
 11 12  1  0
 12 13  2  0
 14 15  1  0
 14 19  2  0
 15 16  2  0
 16 17  1  0
 17 20  2  0
 17 18  1  0
 18 19  1  0
  3 21  1  0
  4 22  1  0
  5 23  1  0
  7 24  1  0
 10 25  1  0
 11 26  1  0
 13 27  1  0
 15 28  1  0
 16 29  1  0
 18 30  1  0
 19 31  1  0
M  END
>  <Pose ID>  (76)
7

>  <Score>  (76)
-7.169112205505371

>  <smiles>  (76)
O=c1ccc(-c2cccnc2Nc2cnccn2)c[nH]1

$$$$

     RDKit          3D

 31 33  0  0  0  0  0  0  0  0999 V2000
   27.8110    8.2480  -10.2920 C   0  0  0  0  0  0  0  0  0  0  0  0
   27.4600    7.0510   -9.6810 N   0  0  0  0  0  0  0  0  0  0  0  0
   26.4980    7.0420   -8.6750 C   0  0  0  0  0  0  0  0  0  0  0  0
   25.8880    8.2230   -8.2850 C   0  0  0  0  0  0  0  0  0  0  0  0
   26.2420    9.4240   -8.8950 C   0  0  0  0  0  0  0  0  0  0  0  0
   27.2250    9.4370   -9.8780 C   0  0  0  0  0  0  0  0  0  0  0  0
   28.7410    8.2550  -11.3040 N   0  0  0  0  0  0  0  0  0  0  0  0
   29.1080    9.4500  -11.9980 C   0  0  0  0  0  0  0  0  0  0  0  0
   30.4440    9.8030  -12.1360 N   0  0  0  0  0  0  0  0  0  0  0  0
   30.7890   10.9740  -12.8020 C   0  0  0  0  0  0  0  0  0  0  0  0
   29.7950   11.7920  -13.3260 C   0  0  0  0  0  0  0  0  0  0  0  0
   28.4580   11.4390  -13.1870 N   0  0  0  0  0  0  0  0  0  0  0  0
   28.1150   10.2680  -12.5210 C   0  0  0  0  0  0  0  0  0  0  0  0
   27.4450   10.7640  -10.2930 C   0  0  0  0  0  0  0  0  0  0  0  0
   28.7660   11.3630  -10.5300 C   0  0  0  0  0  0  0  0  0  0  0  0
   28.4610   12.7300  -10.9300 C   0  0  0  0  0  0  0  0  0  0  0  0
   27.1840   12.8690  -10.8630 O   0  0  0  0  0  0  0  0  0  0  0  0
   26.6250   11.7530  -10.4620 C   0  0  0  0  0  0  0  0  0  0  0  0
   29.4570   13.7850  -11.3450 C   0  0  1  0  0  0  0  0  0  0  0  0
   26.2215    6.0949   -8.1886 H   0  0  0  0  0  0  0  0  0  0  0  0
   25.1241    8.2123   -7.4936 H   0  0  0  0  0  0  0  0  0  0  0  0
   25.7451   10.3599   -8.5997 H   0  0  0  0  0  0  0  0  0  0  0  0
   29.1897    7.3675  -11.5721 H   0  0  0  0  0  0  0  0  0  0  0  0
   31.8472   11.2525  -12.9140 H   0  0  0  0  0  0  0  0  0  0  0  0
   30.0668   12.7196  -13.8512 H   0  0  0  0  0  0  0  0  0  0  0  0
   27.0569    9.9893  -12.4082 H   0  0  0  0  0  0  0  0  0  0  0  0
   29.7538   10.8898  -10.4290 H   0  0  0  0  0  0  0  0  0  0  0  0
   25.5434   11.6631  -10.2828 H   0  0  0  0  0  0  0  0  0  0  0  0
   29.8948   14.2487  -10.4487 H   0  0  0  0  0  0  0  0  0  0  0  0
   30.2542   13.3211  -11.9444 H   0  0  0  0  0  0  0  0  0  0  0  0
   28.9480   14.5542  -11.9444 H   0  0  0  0  0  0  0  0  0  0  0  0
  1  7  1  0
  1  6  1  0
  1  2  2  0
  2  3  1  0
  3  4  2  0
  4  5  1  0
  5  6  2  0
  6 14  1  0
  7  8  1  0
  8 13  1  0
  8  9  2  0
  9 10  1  0
 10 11  2  0
 11 12  1  0
 12 13  2  0
 14 15  1  0
 14 18  2  0
 15 16  2  0
 16 19  1  0
 16 17  1  0
 17 18  1  0
  3 20  1  0
  4 21  1  0
  5 22  1  0
  7 23  1  0
 10 24  1  0
 11 25  1  0
 13 26  1  0
 15 27  1  0
 18 28  1  0
 19 29  1  1
 19 30  1  0
 19 31  1  0
M  END
>  <Pose ID>  (77)
5

>  <Score>  (77)
-7.167288303375244

>  <smiles>  (77)
Cc1cc(-c2cccnc2Nc2cnccn2)co1

$$$$

     RDKit          3D

 38 40  0  0  0  0  0  0  0  0999 V2000
   27.8050    8.2480  -10.2920 C   0  0  0  0  0  0  0  0  0  0  0  0
   27.4400    7.0480   -9.6940 N   0  0  0  0  0  0  0  0  0  0  0  0
   26.5110    7.0430   -8.6600 C   0  0  0  0  0  0  0  0  0  0  0  0
   25.9460    8.2320   -8.2270 C   0  0  0  0  0  0  0  0  0  0  0  0
   26.3150    9.4340   -8.8240 C   0  0  0  0  0  0  0  0  0  0  0  0
   27.2670    9.4430   -9.8370 C   0  0  0  0  0  0  0  0  0  0  0  0
   28.7030    8.2510  -11.3320 N   0  0  0  0  0  0  0  0  0  0  0  0
   29.0820    9.4500  -12.0130 C   0  0  0  0  0  0  0  0  0  0  0  0
   30.4240    9.7700  -12.1860 N   0  0  0  0  0  0  0  0  0  0  0  0
   30.7790   10.9440  -12.8370 C   0  0  0  0  0  0  0  0  0  0  0  0
   29.7930   11.7990  -13.3150 C   0  0  0  0  0  0  0  0  0  0  0  0
   28.4510   11.4800  -13.1400 N   0  0  0  0  0  0  0  0  0  0  0  0
   28.0970   10.3060  -12.4880 C   0  0  0  0  0  0  0  0  0  0  0  0
   27.5380   10.8700  -10.2430 C   0  0  0  0  0  0  0  0  0  0  0  0
   28.8320   11.3300  -10.4600 C   0  0  0  0  0  0  0  0  0  0  0  0
   29.0380   12.6170  -10.9400 C   0  0  0  0  0  0  0  0  0  0  0  0
   27.9520   13.4420  -11.2060 C   0  0  0  0  0  0  0  0  0  0  0  0
   26.4520   11.6940  -10.5080 C   0  0  0  0  0  0  0  0  0  0  0  0
   26.6290   12.9610  -10.8950 N   0  0  0  0  0  0  0  0  0  0  0  0
   28.1170   14.5720  -11.7010 O   0  0  0  0  0  0  0  0  0  0  0  0
   25.6050   10.4620   -8.2440 O   0  0  0  0  0  0  0  0  0  0  0  0
   25.6680   10.8440   -6.8550 C   0  0  1  0  0  0  0  0  0  0  0  0
   24.9410   12.1300   -6.7200 C   0  0  1  0  0  0  0  0  0  0  0  0
   26.2238    6.0935   -8.1846 H   0  0  0  0  0  0  0  0  0  0  0  0
   25.2068    8.2259   -7.4124 H   0  0  0  0  0  0  0  0  0  0  0  0
   29.1182    7.3574  -11.6319 H   0  0  0  0  0  0  0  0  0  0  0  0
   31.8406   11.1973  -12.9744 H   0  0  0  0  0  0  0  0  0  0  0  0
   30.0744   12.7283  -13.8319 H   0  0  0  0  0  0  0  0  0  0  0  0
   27.0355   10.0539  -12.3477 H   0  0  0  0  0  0  0  0  0  0  0  0
   29.6914   10.6756  -10.2518 H   0  0  0  0  0  0  0  0  0  0  0  0
   30.0613   12.9833  -11.1096 H   0  0  0  0  0  0  0  0  0  0  0  0
   25.4316   11.2983  -10.3978 H   0  0  0  0  0  0  0  0  0  0  0  0
   25.8200   13.5939  -10.9711 H   0  0  0  0  0  0  0  0  0  0  0  0
   25.1911   10.0742   -6.2305 H   0  0  0  0  0  0  0  0  0  0  0  0
   26.7124   10.9496   -6.5262 H   0  0  0  0  0  0  0  0  0  0  0  0
   24.8078   12.3657   -5.6538 H   0  0  0  0  0  0  0  0  0  0  0  0
   25.5199   12.9309   -7.2030 H   0  0  0  0  0  0  0  0  0  0  0  0
   23.9562   12.0470   -7.2030 H   0  0  0  0  0  0  0  0  0  0  0  0
  1  7  1  0
  1  6  1  0
  1  2  2  0
  2  3  1  0
  3  4  2  0
  4  5  1  0
  5  6  2  0
  5 21  1  0
  6 14  1  0
  7  8  1  0
  8 13  1  0
  8  9  2  0
  9 10  1  0
 10 11  2  0
 11 12  1  0
 12 13  2  0
 14 18  2  0
 14 15  1  0
 15 16  2  0
 16 17  1  0
 17 20  2  0
 17 19  1  0
 18 19  1  0
 21 22  1  0
 22 23  1  0
  3 24  1  0
  4 25  1  0
  7 26  1  0
 10 27  1  0
 11 28  1  0
 13 29  1  0
 15 30  1  0
 16 31  1  0
 18 32  1  0
 19 33  1  0
 22 34  1  1
 22 35  1  0
 23 36  1  1
 23 37  1  0
 23 38  1  0
M  END
>  <Pose ID>  (78)
12

>  <Score>  (78)
-7.068809509277344

>  <smiles>  (78)
CCOc1ccnc(Nc2cnccn2)c1-c1ccc(=O)[nH]c1

$$$$

     RDKit          3D

 38 41  0  0  0  0  0  0  0  0999 V2000
   28.2650    8.2040  -10.6780 C   0  0  0  0  0  0  0  0  0  0  0  0
   27.6610    7.3920   -9.8370 N   0  0  0  0  0  0  0  0  0  0  0  0
   26.4680    7.8350   -9.2740 C   0  0  0  0  0  0  0  0  0  0  0  0
   25.8040    7.0430   -8.4260 O   0  0  0  0  0  0  0  0  0  0  0  0
   27.7880    9.4600  -11.0390 C   0  0  0  0  0  0  0  0  0  0  0  0
   26.6520    9.8960  -10.5050 C   0  0  0  0  0  0  0  0  0  0  0  0
   25.9640    9.0860   -9.6080 C   0  0  0  0  0  0  0  0  0  0  0  0
   28.5020   10.2430  -11.9360 C   0  0  0  0  0  0  0  0  0  0  0  0
   29.6940    9.7730  -12.4720 C   0  0  0  0  0  0  0  0  0  0  0  0
   30.1730    8.5200  -12.1110 C   0  0  0  0  0  0  0  0  0  0  0  0
   29.4960    7.7370  -11.1950 C   0  0  0  0  0  0  0  0  0  0  0  0
   25.9280    7.5200   -7.0850 C   0  0  1  0  0  0  0  0  0  0  0  0
   24.7850    9.5230   -9.0490 N   0  0  0  0  0  0  0  0  0  0  0  0
   24.4170   10.6950   -8.3160 C   0  0  0  0  0  0  0  0  0  0  0  0
   25.4180   11.6550   -8.3980 N   0  0  0  0  0  0  0  0  0  0  0  0
   25.2670   12.8760   -7.7470 C   0  0  0  0  0  0  0  0  0  0  0  0
   24.1150   13.1330   -7.0160 C   0  0  0  0  0  0  0  0  0  0  0  0
   23.1120   12.1740   -6.9350 N   0  0  0  0  0  0  0  0  0  0  0  0
   23.2640   10.9540   -7.5760 C   0  0  0  0  0  0  0  0  0  0  0  0
   24.2000   14.3660   -6.4820 N   0  0  0  0  0  0  0  0  0  0  0  0
   25.4010   14.9270   -6.8500 C   0  0  0  0  0  0  0  0  0  0  0  0
   25.9460   13.8780   -7.6240 C   0  0  0  0  0  0  0  0  0  0  0  0
   27.3060   13.9950   -8.2650 C   0  0  1  0  0  0  0  0  0  0  0  0
   26.2593   10.8887  -10.7701 H   0  0  0  0  0  0  0  0  0  0  0  0
   28.1237   11.2355  -12.2222 H   0  0  0  0  0  0  0  0  0  0  0  0
   30.2592   10.3935  -13.1830 H   0  0  0  0  0  0  0  0  0  0  0  0
   31.1045    8.1456  -12.5606 H   0  0  0  0  0  0  0  0  0  0  0  0
   29.9070    6.7685  -10.8740 H   0  0  0  0  0  0  0  0  0  0  0  0
   25.7149    6.7003   -6.3831 H   0  0  0  0  0  0  0  0  0  0  0  0
   26.9515    7.8875   -6.9197 H   0  0  0  0  0  0  0  0  0  0  0  0
   25.2130    8.3394   -6.9197 H   0  0  0  0  0  0  0  0  0  0  0  0
   24.0023    8.8680   -9.1876 H   0  0  0  0  0  0  0  0  0  0  0  0
   22.2550   12.3699   -6.3983 H   0  0  0  0  0  0  0  0  0  0  0  0
   22.4754   10.1908   -7.5008 H   0  0  0  0  0  0  0  0  0  0  0  0
   25.8197   15.9153   -6.6092 H   0  0  0  0  0  0  0  0  0  0  0  0
   28.0759   14.0612   -7.4821 H   0  0  0  0  0  0  0  0  0  0  0  0
   27.4941   13.1097   -8.8902 H   0  0  0  0  0  0  0  0  0  0  0  0
   27.3401   14.8994   -8.8902 H   0  0  0  0  0  0  0  0  0  0  0  0
 13  7  1  0
 13 14  1  0
 14 15  1  0
 14 19  2  0
 15 16  2  0
 16 22  1  0
 16 17  1  0
 17 18  1  0
 17 20  2  0
 18 19  1  0
 20 21  1  0
 21 22  2  0
 22 23  1  0
  1 11  1  0
  1  5  1  0
  1  2  2  0
  2  3  1  0
  3  7  2  0
  3  4  1  0
  5  8  1  0
  5  6  2  0
  6  7  1  0
  8  9  2  0
  9 10  1  0
 10 11  2  0
  4 12  1  0
  6 24  1  0
  8 25  1  0
  9 26  1  0
 10 27  1  0
 11 28  1  0
 12 29  1  1
 12 30  1  0
 12 31  1  0
 13 32  1  0
 18 33  1  0
 19 34  1  0
 21 35  1  0
 23 36  1  1
 23 37  1  0
 23 38  1  0
M  END
>  <Pose ID>  (79)
134

>  <Score>  (79)
-7.013031959533691

>  <smiles>  (79)
COc1nc2ccccc2cc1Nc1c[nH]c2ncc(C)c-2n1

$$$$

     RDKit          3D

 38 40  0  0  0  0  0  0  0  0999 V2000
   28.2630    8.2140  -10.6730 C   0  0  0  0  0  0  0  0  0  0  0  0
   27.6800    7.4020   -9.8170 N   0  0  0  0  0  0  0  0  0  0  0  0
   26.4890    7.8360   -9.2430 C   0  0  0  0  0  0  0  0  0  0  0  0
   25.8450    7.0430   -8.3790 O   0  0  0  0  0  0  0  0  0  0  0  0
   27.7660    9.4600  -11.0400 C   0  0  0  0  0  0  0  0  0  0  0  0
   26.6300    9.8870  -10.4960 C   0  0  0  0  0  0  0  0  0  0  0  0
   25.9640    9.0750   -9.5810 C   0  0  0  0  0  0  0  0  0  0  0  0
   28.4580   10.2430  -11.9530 C   0  0  0  0  0  0  0  0  0  0  0  0
   29.6490    9.7840  -12.5010 C   0  0  0  0  0  0  0  0  0  0  0  0
   30.1470    8.5390  -12.1340 C   0  0  0  0  0  0  0  0  0  0  0  0
   29.4930    7.7570  -11.2020 C   0  0  0  0  0  0  0  0  0  0  0  0
   25.9800    7.5340   -7.0450 C   0  0  1  0  0  0  0  0  0  0  0  0
   24.7880    9.5050   -9.0130 N   0  0  0  0  0  0  0  0  0  0  0  0
   24.4140   10.6790   -8.2860 C   0  0  0  0  0  0  0  0  0  0  0  0
   25.4010   11.6520   -8.3910 N   0  0  0  0  0  0  0  0  0  0  0  0
   25.2440   12.8750   -7.7490 C   0  0  0  0  0  0  0  0  0  0  0  0
   24.0960   13.1250   -7.0050 C   0  0  0  0  0  0  0  0  0  0  0  0
   23.1080   12.1520   -6.9020 N   0  0  0  0  0  0  0  0  0  0  0  0
   23.2680   10.9290   -7.5340 C   0  0  0  0  0  0  0  0  0  0  0  0
   23.9550   14.2210   -6.4300 O   0  0  0  0  0  0  0  0  0  0  0  0
   26.3160   13.9300   -7.8620 C   0  0  1  0  0  0  0  0  0  0  0  0
   25.8380   15.3080   -8.3050 C   0  0  1  0  0  0  0  0  0  0  0  0
   26.2205   10.8716  -10.7660 H   0  0  0  0  0  0  0  0  0  0  0  0
   28.0631   11.2279  -12.2430 H   0  0  0  0  0  0  0  0  0  0  0  0
   30.1975   10.4049  -13.2246 H   0  0  0  0  0  0  0  0  0  0  0  0
   31.0764    8.1709  -12.5930 H   0  0  0  0  0  0  0  0  0  0  0  0
   29.9205    6.7969  -10.8772 H   0  0  0  0  0  0  0  0  0  0  0  0
   25.7578    6.7259   -6.3326 H   0  0  0  0  0  0  0  0  0  0  0  0
   27.0091    7.8891   -6.8874 H   0  0  0  0  0  0  0  0  0  0  0  0
   25.2771    8.3653   -6.8874 H   0  0  0  0  0  0  0  0  0  0  0  0
   24.0109    8.8405   -9.1374 H   0  0  0  0  0  0  0  0  0  0  0  0
   22.2558   12.3405   -6.3551 H   0  0  0  0  0  0  0  0  0  0  0  0
   22.4907   10.1561   -7.4420 H   0  0  0  0  0  0  0  0  0  0  0  0
   26.7910   14.0372   -6.8756 H   0  0  0  0  0  0  0  0  0  0  0  0
   27.0007   13.5810   -8.6490 H   0  0  0  0  0  0  0  0  0  0  0  0
   25.6242   15.9242   -7.4192 H   0  0  0  0  0  0  0  0  0  0  0  0
   26.6210   15.7914   -8.9077 H   0  0  0  0  0  0  0  0  0  0  0  0
   24.9239   15.2027   -8.9077 H   0  0  0  0  0  0  0  0  0  0  0  0
  1 11  1  0
  1  5  1  0
  1  2  2  0
  2  3  1  0
  3  7  2  0
  3  4  1  0
  5  8  1  0
  5  6  2  0
  6  7  1  0
  7 13  1  0
  8  9  2  0
  9 10  1  0
 10 11  2  0
  4 12  1  0
 13 14  1  0
 14 15  1  0
 14 19  2  0
 15 16  2  0
 16 21  1  0
 16 17  1  0
 17 18  1  0
 17 20  2  0
 18 19  1  0
 21 22  1  0
  6 23  1  0
  8 24  1  0
  9 25  1  0
 10 26  1  0
 11 27  1  0
 12 28  1  1
 12 29  1  0
 12 30  1  0
 13 31  1  0
 18 32  1  0
 19 33  1  0
 21 34  1  1
 21 35  1  0
 22 36  1  1
 22 37  1  0
 22 38  1  0
M  END
>  <Pose ID>  (80)
143

>  <Score>  (80)
-6.997341156005859

>  <smiles>  (80)
CCc1nc(Nc2cc3ccccc3nc2OC)c[nH]c1=O

$$$$

     RDKit          3D

 28 30  0  0  0  0  0  0  0  0999 V2000
   27.8140    8.2450  -10.2920 C   0  0  0  0  0  0  0  0  0  0  0  0
   27.4640    7.0490   -9.6770 N   0  0  0  0  0  0  0  0  0  0  0  0
   26.5000    7.0420   -8.6730 C   0  0  0  0  0  0  0  0  0  0  0  0
   25.8880    8.2240   -8.2880 C   0  0  0  0  0  0  0  0  0  0  0  0
   26.2410    9.4230   -8.9020 C   0  0  0  0  0  0  0  0  0  0  0  0
   27.2260    9.4340   -9.8830 C   0  0  0  0  0  0  0  0  0  0  0  0
   28.7460    8.2490  -11.3020 N   0  0  0  0  0  0  0  0  0  0  0  0
   29.1120    9.4430  -12.0000 C   0  0  0  0  0  0  0  0  0  0  0  0
   30.4480    9.7970  -12.1370 N   0  0  0  0  0  0  0  0  0  0  0  0
   30.7920   10.9660  -12.8060 C   0  0  0  0  0  0  0  0  0  0  0  0
   29.7980   11.7810  -13.3350 C   0  0  0  0  0  0  0  0  0  0  0  0
   28.4610   11.4260  -13.1970 N   0  0  0  0  0  0  0  0  0  0  0  0
   28.1190   10.2570  -12.5280 C   0  0  0  0  0  0  0  0  0  0  0  0
   27.4440   10.7600  -10.3030 C   0  0  0  0  0  0  0  0  0  0  0  0
   28.7640   11.3600  -10.5390 C   0  0  0  0  0  0  0  0  0  0  0  0
   28.4580   12.7250  -10.9450 C   0  0  0  0  0  0  0  0  0  0  0  0
   27.1810   12.8620  -10.8810 O   0  0  0  0  0  0  0  0  0  0  0  0
   26.6230   11.7470  -10.4770 C   0  0  0  0  0  0  0  0  0  0  0  0
   26.2234    6.0962   -8.1842 H   0  0  0  0  0  0  0  0  0  0  0  0
   25.1233    8.2153   -7.4973 H   0  0  0  0  0  0  0  0  0  0  0  0
   25.7417   10.3591   -8.6115 H   0  0  0  0  0  0  0  0  0  0  0  0
   29.1968    7.3612  -11.5657 H   0  0  0  0  0  0  0  0  0  0  0  0
   31.8500   11.2459  -12.9167 H   0  0  0  0  0  0  0  0  0  0  0  0
   30.0694   12.7071  -13.8630 H   0  0  0  0  0  0  0  0  0  0  0  0
   27.0612    9.9765  -12.4168 H   0  0  0  0  0  0  0  0  0  0  0  0
   29.7523   10.8887  -10.4337 H   0  0  0  0  0  0  0  0  0  0  0  0
   29.1831   13.4942  -11.2492 H   0  0  0  0  0  0  0  0  0  0  0  0
   25.5412   11.6562  -10.2994 H   0  0  0  0  0  0  0  0  0  0  0  0
  1  7  1  0
  1  6  1  0
  1  2  2  0
  2  3  1  0
  3  4  2  0
  4  5  1  0
  5  6  2  0
  6 14  1  0
  7  8  1  0
  8 13  1  0
  8  9  2  0
  9 10  1  0
 10 11  2  0
 11 12  1  0
 12 13  2  0
 14 15  1  0
 14 18  2  0
 15 16  2  0
 16 17  1  0
 17 18  1  0
  3 19  1  0
  4 20  1  0
  5 21  1  0
  7 22  1  0
 10 23  1  0
 11 24  1  0
 13 25  1  0
 15 26  1  0
 16 27  1  0
 18 28  1  0
M  END
>  <Pose ID>  (81)
4

>  <Score>  (81)
-6.978188991546631

>  <smiles>  (81)
c1cnc(Nc2cnccn2)c(-c2ccoc2)c1

$$$$

     RDKit          3D

 35 37  0  0  0  0  0  0  0  0999 V2000
   27.8070    8.2470  -10.2930 C   0  0  0  0  0  0  0  0  0  0  0  0
   27.4420    7.0460   -9.6940 N   0  0  0  0  0  0  0  0  0  0  0  0
   26.5110    7.0420   -8.6620 C   0  0  0  0  0  0  0  0  0  0  0  0
   25.9430    8.2310   -8.2320 C   0  0  0  0  0  0  0  0  0  0  0  0
   26.3110    9.4330   -8.8290 C   0  0  0  0  0  0  0  0  0  0  0  0
   27.2660    9.4420   -9.8400 C   0  0  0  0  0  0  0  0  0  0  0  0
   28.7080    8.2510  -11.3310 N   0  0  0  0  0  0  0  0  0  0  0  0
   29.0850    9.4490  -12.0120 C   0  0  0  0  0  0  0  0  0  0  0  0
   30.4270    9.7700  -12.1830 N   0  0  0  0  0  0  0  0  0  0  0  0
   30.7820   10.9440  -12.8350 C   0  0  0  0  0  0  0  0  0  0  0  0
   29.7960   11.7980  -13.3150 C   0  0  0  0  0  0  0  0  0  0  0  0
   28.4540   11.4770  -13.1420 N   0  0  0  0  0  0  0  0  0  0  0  0
   28.1000   10.3030  -12.4900 C   0  0  0  0  0  0  0  0  0  0  0  0
   27.5360   10.8680  -10.2470 C   0  0  0  0  0  0  0  0  0  0  0  0
   28.8300   11.3300  -10.4610 C   0  0  0  0  0  0  0  0  0  0  0  0
   29.0350   12.6170  -10.9430 C   0  0  0  0  0  0  0  0  0  0  0  0
   27.9480   13.4400  -11.2120 C   0  0  0  0  0  0  0  0  0  0  0  0
   26.4490   11.6910  -10.5160 C   0  0  0  0  0  0  0  0  0  0  0  0
   26.6260   12.9570  -10.9030 N   0  0  0  0  0  0  0  0  0  0  0  0
   28.1120   14.5700  -11.7080 O   0  0  0  0  0  0  0  0  0  0  0  0
   25.8850   10.7220   -8.5990 O   0  0  0  0  0  0  0  0  0  0  0  0
   25.8710   11.2970   -7.1660 C   0  0  1  0  0  0  0  0  0  0  0  0
   26.2243    6.0930   -8.1854 H   0  0  0  0  0  0  0  0  0  0  0  0
   25.2017    8.2245   -7.4193 H   0  0  0  0  0  0  0  0  0  0  0  0
   29.1265    7.3581  -11.6286 H   0  0  0  0  0  0  0  0  0  0  0  0
   31.8436   11.1979  -12.9715 H   0  0  0  0  0  0  0  0  0  0  0  0
   30.0771   12.7276  -13.8316 H   0  0  0  0  0  0  0  0  0  0  0  0
   27.0385   10.0495  -12.3521 H   0  0  0  0  0  0  0  0  0  0  0  0
   29.6900   10.6776  -10.2490 H   0  0  0  0  0  0  0  0  0  0  0  0
   30.0580   12.9845  -11.1117 H   0  0  0  0  0  0  0  0  0  0  0  0
   25.4287   11.2943  -10.4087 H   0  0  0  0  0  0  0  0  0  0  0  0
   25.8164   13.5890  -10.9807 H   0  0  0  0  0  0  0  0  0  0  0  0
   25.8911   10.4714   -6.4394 H   0  0  0  0  0  0  0  0  0  0  0  0
   26.7538   11.9365   -7.0189 H   0  0  0  0  0  0  0  0  0  0  0  0
   24.9581   11.8928   -7.0189 H   0  0  0  0  0  0  0  0  0  0  0  0
  1  7  1  0
  1  6  1  0
  1  2  2  0
  2  3  1  0
  3  4  2  0
  4  5  1  0
  5  6  2  0
  5 21  1  0
  6 14  1  0
  7  8  1  0
  8 13  1  0
  8  9  2  0
  9 10  1  0
 10 11  2  0
 11 12  1  0
 12 13  2  0
 14 18  2  0
 14 15  1  0
 15 16  2  0
 16 17  1  0
 17 20  2  0
 17 19  1  0
 18 19  1  0
 21 22  1  0
  3 23  1  0
  4 24  1  0
  7 25  1  0
 10 26  1  0
 11 27  1  0
 13 28  1  0
 15 29  1  0
 16 30  1  0
 18 31  1  0
 19 32  1  0
 22 33  1  1
 22 34  1  0
 22 35  1  0
M  END
>  <Pose ID>  (82)
8

>  <Score>  (82)
-6.955118656158447

>  <smiles>  (82)
COc1ccnc(Nc2cnccn2)c1-c1ccc(=O)[nH]c1

$$$$

     RDKit          3D

 27 28  0  0  0  0  0  0  0  0999 V2000
   27.5070    8.6570  -10.5090 C   0  0  0  0  0  0  0  0  0  0  0  0
   27.6140    7.4130   -9.9010 N   0  0  0  0  0  0  0  0  0  0  0  0
   26.7700    7.0770   -8.8500 C   0  0  0  0  0  0  0  0  0  0  0  0
   25.8170    7.9860   -8.4050 N   0  0  0  0  0  0  0  0  0  0  0  0
   28.3280    8.8870  -11.4450 N   0  0  0  0  0  0  0  0  0  0  0  0
   25.7100    9.2320   -9.0140 C   0  0  0  0  0  0  0  0  0  0  0  0
   26.5470    9.5570  -10.0810 C   0  0  0  0  0  0  0  0  0  0  0  0
   28.2620   10.0550  -12.0780 C   0  0  0  0  0  0  0  0  0  0  0  0
   29.2780   10.9960  -11.9750 N   0  0  0  0  0  0  0  0  0  0  0  0
   29.1770   12.2050  -12.6530 C   0  0  0  0  0  0  0  0  0  0  0  0
   28.0590   12.4720  -13.4340 C   0  0  0  0  0  0  0  0  0  0  0  0
   27.0420   11.5310  -13.5390 C   0  0  0  0  0  0  0  0  0  0  0  0
   27.1600   10.3090  -12.8820 C   0  0  0  0  0  0  0  0  0  0  0  0
   29.4310    8.1110  -12.0470 C   0  0  1  0  0  0  0  0  0  0  0  0
   24.6920   10.2290   -8.5200 C   0  0  1  0  0  0  0  0  0  0  0  0
   26.8558    6.0912   -8.3697 H   0  0  0  0  0  0  0  0  0  0  0  0
   26.4439   10.5302  -10.5832 H   0  0  0  0  0  0  0  0  0  0  0  0
   29.9818   12.9504  -12.5714 H   0  0  0  0  0  0  0  0  0  0  0  0
   27.9790   13.4294  -13.9697 H   0  0  0  0  0  0  0  0  0  0  0  0
   26.1467   11.7507  -14.1391 H   0  0  0  0  0  0  0  0  0  0  0  0
   26.3785    9.5440  -13.0005 H   0  0  0  0  0  0  0  0  0  0  0  0
   30.0506    7.6751  -11.2494 H   0  0  0  0  0  0  0  0  0  0  0  0
   29.0152    7.3054  -12.6700 H   0  0  0  0  0  0  0  0  0  0  0  0
   30.0488    8.7745  -12.6700 H   0  0  0  0  0  0  0  0  0  0  0  0
   24.6872   10.2337   -7.4200 H   0  0  0  0  0  0  0  0  0  0  0  0
   24.9516   11.2319   -8.8898 H   0  0  0  0  0  0  0  0  0  0  0  0
   23.6947    9.9486   -8.8898 H   0  0  0  0  0  0  0  0  0  0  0  0
  1  5  1  0
  1  7  1  0
  1  2  2  0
  2  3  1  0
  3  4  2  0
  4  6  1  0
  5  8  1  0
  5 14  1  0
  6  7  2  0
  6 15  1  0
  8 13  1  0
  8  9  2  0
  9 10  1  0
 10 11  2  0
 11 12  1  0
 12 13  2  0
  3 16  1  0
  7 17  1  0
 10 18  1  0
 11 19  1  0
 12 20  1  0
 13 21  1  0
 14 22  1  1
 14 23  1  0
 14 24  1  0
 15 25  1  1
 15 26  1  0
 15 27  1  0
M  END
>  <Pose ID>  (83)
154

>  <Score>  (83)
-6.9323906898498535

>  <smiles>  (83)
Cc1cc(N(C)c2ccccn2)ncn1

$$$$

     RDKit          3D

 40 42  0  0  0  0  0  0  0  0999 V2000
   27.6310    8.3980  -10.1200 C   0  0  0  0  0  0  0  0  0  0  0  0
   27.3920    7.2220   -9.4210 N   0  0  0  0  0  0  0  0  0  0  0  0
   26.5950    7.2390   -8.2840 C   0  0  0  0  0  0  0  0  0  0  0  0
   26.0370    8.4340   -7.8430 N   0  0  0  0  0  0  0  0  0  0  0  0
   28.3840    8.2940  -11.1350 N   0  0  0  0  0  0  0  0  0  0  0  0
   26.2760    9.6100   -8.5430 C   0  0  0  0  0  0  0  0  0  0  0  0
   27.0600    9.5840   -9.6980 C   0  0  0  0  0  0  0  0  0  0  0  0
   28.6320    9.3820  -11.8590 C   0  0  0  0  0  0  0  0  0  0  0  0
   29.9030    9.9420  -11.9110 N   0  0  0  0  0  0  0  0  0  0  0  0
   30.1280   11.0770  -12.6800 C   0  0  0  0  0  0  0  0  0  0  0  0
   29.0820   11.6570  -13.3920 C   0  0  0  0  0  0  0  0  0  0  0  0
   27.8130   11.0970  -13.3370 C   0  0  0  0  0  0  0  0  0  0  0  0
   27.5970    9.9420  -12.5900 C   0  0  0  0  0  0  0  0  0  0  0  0
   29.1100    7.1680  -11.7530 C   0  0  1  0  0  0  0  0  0  0  0  0
   29.3080   12.7850  -14.1500 O   0  0  0  0  0  0  0  0  0  0  0  0
   29.4980   13.9060  -13.2960 C   0  0  1  0  0  0  0  0  0  0  0  0
   28.3840   14.6880  -12.7120 C   0  0  0  0  0  0  0  0  0  0  0  0
   28.2150   14.7290  -11.3330 C   0  0  0  0  0  0  0  0  0  0  0  0
   27.5100   15.3840  -13.5390 N   0  0  0  0  0  0  0  0  0  0  0  0
   27.1740   15.4640  -10.7810 C   0  0  0  0  0  0  0  0  0  0  0  0
   26.4690   16.1210  -12.9870 C   0  0  0  0  0  0  0  0  0  0  0  0
   26.3080   16.1840  -11.5960 C   0  0  0  0  0  0  0  0  0  0  0  0
   26.6710   11.7380  -14.0870 C   0  0  1  0  0  0  0  0  0  0  0  0
   26.4049    6.3068   -7.7319 H   0  0  0  0  0  0  0  0  0  0  0  0
   25.8486   10.5594   -8.1881 H   0  0  0  0  0  0  0  0  0  0  0  0
   27.2234   10.5078  -10.2724 H   0  0  0  0  0  0  0  0  0  0  0  0
   31.1346   11.5181  -12.7263 H   0  0  0  0  0  0  0  0  0  0  0  0
   26.6020    9.4730  -12.5803 H   0  0  0  0  0  0  0  0  0  0  0  0
   29.5258    6.5231  -10.9649 H   0  0  0  0  0  0  0  0  0  0  0  0
   28.4179    6.5840  -12.3774 H   0  0  0  0  0  0  0  0  0  0  0  0
   29.9276    7.5574  -12.3774 H   0  0  0  0  0  0  0  0  0  0  0  0
   30.0859   13.5372  -12.4426 H   0  0  0  0  0  0  0  0  0  0  0  0
   29.9294   14.6373  -13.9954 H   0  0  0  0  0  0  0  0  0  0  0  0
   28.9066   14.1787  -10.6781 H   0  0  0  0  0  0  0  0  0  0  0  0
   27.0335   15.4766   -9.6901 H   0  0  0  0  0  0  0  0  0  0  0  0
   25.7686   16.6570  -13.6443 H   0  0  0  0  0  0  0  0  0  0  0  0
   25.5068   16.7952  -11.1550 H   0  0  0  0  0  0  0  0  0  0  0  0
   25.9441   12.1460  -13.3693 H   0  0  0  0  0  0  0  0  0  0  0  0
   27.0579   12.5508  -14.7192 H   0  0  0  0  0  0  0  0  0  0  0  0
   26.1786   10.9844  -14.7192 H   0  0  0  0  0  0  0  0  0  0  0  0
  1  5  1  0
  1  7  1  0
  1  2  2  0
  2  3  1  0
  3  4  2  0
  4  6  1  0
  5  8  1  0
  5 14  1  0
  6  7  2  0
  8 13  1  0
  8  9  2  0
  9 10  1  0
 10 11  2  0
 11 15  1  0
 11 12  1  0
 12 23  1  0
 12 13  2  0
 15 16  1  0
 16 17  1  0
 17 19  1  0
 17 18  2  0
 18 20  1  0
 19 21  2  0
 20 22  2  0
 21 22  1  0
  3 24  1  0
  6 25  1  0
  7 26  1  0
 10 27  1  0
 13 28  1  0
 14 29  1  1
 14 30  1  0
 14 31  1  0
 16 32  1  1
 16 33  1  0
 18 34  1  0
 20 35  1  0
 21 36  1  0
 22 37  1  0
 23 38  1  1
 23 39  1  0
 23 40  1  0
M  END
>  <Pose ID>  (84)
164

>  <Score>  (84)
-6.912421703338623

>  <smiles>  (84)
Cc1cc(N(C)c2ccncn2)ncc1OCc1ccccn1

$$$$

     RDKit          3D

 35 38  0  0  0  0  0  0  0  0999 V2000
   28.2620    8.2030  -10.6800 C   0  0  0  0  0  0  0  0  0  0  0  0
   27.6600    7.3930   -9.8350 N   0  0  0  0  0  0  0  0  0  0  0  0
   26.4670    7.8360   -9.2720 C   0  0  0  0  0  0  0  0  0  0  0  0
   25.8050    7.0470   -8.4200 O   0  0  0  0  0  0  0  0  0  0  0  0
   27.7820    9.4560  -11.0450 C   0  0  0  0  0  0  0  0  0  0  0  0
   26.6460    9.8930  -10.5110 C   0  0  0  0  0  0  0  0  0  0  0  0
   25.9610    9.0850   -9.6100 C   0  0  0  0  0  0  0  0  0  0  0  0
   28.4940   10.2370  -11.9460 C   0  0  0  0  0  0  0  0  0  0  0  0
   29.6860    9.7670  -12.4820 C   0  0  0  0  0  0  0  0  0  0  0  0
   30.1670    8.5160  -12.1170 C   0  0  0  0  0  0  0  0  0  0  0  0
   29.4930    7.7350  -11.1970 C   0  0  0  0  0  0  0  0  0  0  0  0
   25.9300    7.5290   -7.0810 C   0  0  1  0  0  0  0  0  0  0  0  0
   24.7820    9.5230   -9.0510 N   0  0  0  0  0  0  0  0  0  0  0  0
   24.4130   10.6970   -8.3220 C   0  0  0  0  0  0  0  0  0  0  0  0
   25.4130   11.6580   -8.4090 N   0  0  0  0  0  0  0  0  0  0  0  0
   25.2610   12.8810   -7.7630 C   0  0  0  0  0  0  0  0  0  0  0  0
   24.1090   13.1400   -7.0310 C   0  0  0  0  0  0  0  0  0  0  0  0
   23.1080   12.1790   -6.9450 N   0  0  0  0  0  0  0  0  0  0  0  0
   23.2610   10.9570   -7.5820 C   0  0  0  0  0  0  0  0  0  0  0  0
   24.1930   14.3750   -6.5020 N   0  0  0  0  0  0  0  0  0  0  0  0
   25.3930   14.9360   -6.8740 C   0  0  0  0  0  0  0  0  0  0  0  0
   25.9390   13.8850   -7.6440 C   0  0  0  0  0  0  0  0  0  0  0  0
   26.2515   10.8842  -10.7792 H   0  0  0  0  0  0  0  0  0  0  0  0
   28.1139   11.2279  -12.2352 H   0  0  0  0  0  0  0  0  0  0  0  0
   30.2495   10.3857  -13.1959 H   0  0  0  0  0  0  0  0  0  0  0  0
   31.0982    8.1413  -12.5668 H   0  0  0  0  0  0  0  0  0  0  0  0
   29.9058    6.7682  -10.8731 H   0  0  0  0  0  0  0  0  0  0  0  0
   25.7181    6.7118   -6.3758 H   0  0  0  0  0  0  0  0  0  0  0  0
   26.9535    7.8977   -6.9181 H   0  0  0  0  0  0  0  0  0  0  0  0
   25.2147    8.3486   -6.9181 H   0  0  0  0  0  0  0  0  0  0  0  0
   24.0000    8.8665   -9.1862 H   0  0  0  0  0  0  0  0  0  0  0  0
   22.2516   12.3751   -6.4074 H   0  0  0  0  0  0  0  0  0  0  0  0
   22.4735   10.1931   -7.5033 H   0  0  0  0  0  0  0  0  0  0  0  0
   25.8104   15.9259   -6.6379 H   0  0  0  0  0  0  0  0  0  0  0  0
   26.9300   13.9698   -8.1138 H   0  0  0  0  0  0  0  0  0  0  0  0
  1 11  1  0
  1  5  1  0
  1  2  2  0
  2  3  1  0
  3  7  2  0
  3  4  1  0
  5  8  1  0
  5  6  2  0
  6  7  1  0
  7 13  1  0
  8  9  2  0
  9 10  1  0
 10 11  2  0
  4 12  1  0
 13 14  1  0
 14 15  1  0
 14 19  2  0
 15 16  2  0
 16 22  1  0
 16 17  1  0
 17 18  1  0
 17 20  2  0
 18 19  1  0
 20 21  1  0
 21 22  2  0
  6 23  1  0
  8 24  1  0
  9 25  1  0
 10 26  1  0
 11 27  1  0
 12 28  1  1
 12 29  1  0
 12 30  1  0
 13 31  1  0
 18 32  1  0
 19 33  1  0
 21 34  1  0
 22 35  1  0
M  END
>  <Pose ID>  (85)
133

>  <Score>  (85)
-6.906309127807617

>  <smiles>  (85)
COc1nc2ccccc2cc1Nc1c[nH]c2nccc-2n1

$$$$

     RDKit          3D

 31 33  0  0  0  0  0  0  0  0999 V2000
   28.2630    8.1720  -10.7060 C   0  0  0  0  0  0  0  0  0  0  0  0
   27.6430    7.3540   -9.8810 N   0  0  0  0  0  0  0  0  0  0  0  0
   26.5050    7.8370   -9.2450 C   0  0  0  0  0  0  0  0  0  0  0  0
   25.8290    7.0420   -8.4100 O   0  0  0  0  0  0  0  0  0  0  0  0
   27.8510    9.4720  -10.9810 C   0  0  0  0  0  0  0  0  0  0  0  0
   26.7650    9.9470  -10.3760 C   0  0  0  0  0  0  0  0  0  0  0  0
   26.0670    9.1320   -9.4910 C   0  0  0  0  0  0  0  0  0  0  0  0
   28.5750   10.2570  -11.8680 C   0  0  0  0  0  0  0  0  0  0  0  0
   29.7110    9.7480  -12.4800 C   0  0  0  0  0  0  0  0  0  0  0  0
   30.1260    8.4500  -12.2050 C   0  0  0  0  0  0  0  0  0  0  0  0
   29.4410    7.6610  -11.3010 C   0  0  0  0  0  0  0  0  0  0  0  0
   26.0360    7.4380   -7.0530 C   0  0  1  0  0  0  0  0  0  0  0  0
   24.9420    9.6090   -8.8590 N   0  0  0  0  0  0  0  0  0  0  0  0
   24.6470   10.7710   -8.0470 C   0  0  0  0  0  0  0  0  0  0  0  0
   25.7180   11.6520   -8.1230 N   0  0  0  0  0  0  0  0  0  0  0  0
   25.6880   12.8460   -7.4110 C   0  0  0  0  0  0  0  0  0  0  0  0
   24.5870   13.1560   -6.6220 C   0  0  0  0  0  0  0  0  0  0  0  0
   23.5160   12.2740   -6.5460 N   0  0  0  0  0  0  0  0  0  0  0  0
   23.5460   11.0810   -7.2580 C   0  0  0  0  0  0  0  0  0  0  0  0
   26.4229   10.9736  -10.5738 H   0  0  0  0  0  0  0  0  0  0  0  0
   28.2473   11.2842  -12.0859 H   0  0  0  0  0  0  0  0  0  0  0  0
   30.2834   10.3713  -13.1828 H   0  0  0  0  0  0  0  0  0  0  0  0
   31.0128    8.0452  -12.7146 H   0  0  0  0  0  0  0  0  0  0  0  0
   29.8046    6.6540  -11.0484 H   0  0  0  0  0  0  0  0  0  0  0  0
   25.6328    6.6666   -6.3804 H   0  0  0  0  0  0  0  0  0  0  0  0
   27.1133    7.5601   -6.8669 H   0  0  0  0  0  0  0  0  0  0  0  0
   25.5213    8.3922   -6.8669 H   0  0  0  0  0  0  0  0  0  0  0  0
   24.1221    9.0004   -8.9944 H   0  0  0  0  0  0  0  0  0  0  0  0
   26.5354   13.5447   -7.4723 H   0  0  0  0  0  0  0  0  0  0  0  0
   24.5633   14.0998   -6.0575 H   0  0  0  0  0  0  0  0  0  0  0  0
   22.6985   10.3824   -7.1970 H   0  0  0  0  0  0  0  0  0  0  0  0
  1 11  1  0
  1  5  1  0
  1  2  2  0
  2  3  1  0
  3  7  2  0
  3  4  1  0
  5  8  1  0
  5  6  2  0
  6  7  1  0
  7 13  1  0
  8  9  2  0
  9 10  1  0
 10 11  2  0
 13 14  1  0
 14 15  2  0
 14 19  1  0
 15 16  1  0
 16 17  2  0
 17 18  1  0
 18 19  2  0
  4 12  1  0
  6 20  1  0
  8 21  1  0
  9 22  1  0
 10 23  1  0
 11 24  1  0
 12 25  1  1
 12 26  1  0
 12 27  1  0
 13 28  1  0
 16 29  1  0
 17 30  1  0
 19 31  1  0
M  END
>  <Pose ID>  (86)
149

>  <Score>  (86)
-6.904531002044678

>  <smiles>  (86)
COc1nc2ccccc2cc1Nc1cnccn1

$$$$

     RDKit          3D

 35 37  0  0  0  0  0  0  0  0999 V2000
   28.2630    8.2140  -10.6730 C   0  0  0  0  0  0  0  0  0  0  0  0
   27.6800    7.4020   -9.8170 N   0  0  0  0  0  0  0  0  0  0  0  0
   26.4900    7.8350   -9.2420 C   0  0  0  0  0  0  0  0  0  0  0  0
   25.8460    7.0420   -8.3790 O   0  0  0  0  0  0  0  0  0  0  0  0
   27.7660    9.4600  -11.0390 C   0  0  0  0  0  0  0  0  0  0  0  0
   26.6300    9.8870  -10.4950 C   0  0  0  0  0  0  0  0  0  0  0  0
   25.9650    9.0750   -9.5800 C   0  0  0  0  0  0  0  0  0  0  0  0
   28.4580   10.2430  -11.9520 C   0  0  0  0  0  0  0  0  0  0  0  0
   29.6480    9.7840  -12.5010 C   0  0  0  0  0  0  0  0  0  0  0  0
   30.1470    8.5390  -12.1350 C   0  0  0  0  0  0  0  0  0  0  0  0
   29.4930    7.7570  -11.2030 C   0  0  0  0  0  0  0  0  0  0  0  0
   25.9810    7.5330   -7.0440 C   0  0  1  0  0  0  0  0  0  0  0  0
   24.7890    9.5040   -9.0110 N   0  0  0  0  0  0  0  0  0  0  0  0
   24.4150   10.6780   -8.2840 C   0  0  0  0  0  0  0  0  0  0  0  0
   25.4020   11.6510   -8.3880 N   0  0  0  0  0  0  0  0  0  0  0  0
   25.2450   12.8740   -7.7460 C   0  0  0  0  0  0  0  0  0  0  0  0
   24.0980   13.1240   -7.0010 C   0  0  0  0  0  0  0  0  0  0  0  0
   23.1100   12.1510   -6.8980 N   0  0  0  0  0  0  0  0  0  0  0  0
   23.2690   10.9280   -7.5310 C   0  0  0  0  0  0  0  0  0  0  0  0
   23.9570   14.2190   -6.4260 O   0  0  0  0  0  0  0  0  0  0  0  0
   26.3170   13.9290   -7.8590 C   0  0  1  0  0  0  0  0  0  0  0  0
   26.2200   10.8714  -10.7651 H   0  0  0  0  0  0  0  0  0  0  0  0
   28.0635   11.2283  -12.2411 H   0  0  0  0  0  0  0  0  0  0  0  0
   30.1956   10.4051  -13.2251 H   0  0  0  0  0  0  0  0  0  0  0  0
   31.0764    8.1713  -12.5944 H   0  0  0  0  0  0  0  0  0  0  0  0
   29.9204    6.7967  -10.8787 H   0  0  0  0  0  0  0  0  0  0  0  0
   25.7588    6.7247   -6.3318 H   0  0  0  0  0  0  0  0  0  0  0  0
   27.0101    7.8881   -6.8862 H   0  0  0  0  0  0  0  0  0  0  0  0
   25.2781    8.3643   -6.8862 H   0  0  0  0  0  0  0  0  0  0  0  0
   24.0124    8.8388   -9.1344 H   0  0  0  0  0  0  0  0  0  0  0  0
   22.2583   12.3393   -6.3503 H   0  0  0  0  0  0  0  0  0  0  0  0
   22.4914   10.1554   -7.4391 H   0  0  0  0  0  0  0  0  0  0  0  0
   26.6330   14.2400   -6.8523 H   0  0  0  0  0  0  0  0  0  0  0  0
   27.1799   13.5181   -8.4036 H   0  0  0  0  0  0  0  0  0  0  0  0
   25.9199   14.7984   -8.4036 H   0  0  0  0  0  0  0  0  0  0  0  0
  1 11  1  0
  1  5  1  0
  1  2  2  0
  2  3  1  0
  3  7  2  0
  3  4  1  0
  5  8  1  0
  5  6  2  0
  6  7  1  0
  7 13  1  0
  8  9  2  0
  9 10  1  0
 10 11  2  0
  4 12  1  0
 13 14  1  0
 14 15  1  0
 14 19  2  0
 15 16  2  0
 16 21  1  0
 16 17  1  0
 17 18  1  0
 17 20  2  0
 18 19  1  0
  6 22  1  0
  8 23  1  0
  9 24  1  0
 10 25  1  0
 11 26  1  0
 12 27  1  1
 12 28  1  0
 12 29  1  0
 13 30  1  0
 18 31  1  0
 19 32  1  0
 21 33  1  1
 21 34  1  0
 21 35  1  0
M  END
>  <Pose ID>  (87)
141

>  <Score>  (87)
-6.8983073234558105

>  <smiles>  (87)
COc1nc2ccccc2cc1Nc1c[nH]c(=O)c(C)n1

$$$$

     RDKit          3D

 38 40  0  0  0  0  0  0  0  0999 V2000
   28.3200    8.1400  -10.7310 C   0  0  0  0  0  0  0  0  0  0  0  0
   27.6370    7.3910   -9.8900 N   0  0  0  0  0  0  0  0  0  0  0  0
   26.4880    7.9470   -9.3380 C   0  0  0  0  0  0  0  0  0  0  0  0
   25.7480    7.2260   -8.4890 O   0  0  0  0  0  0  0  0  0  0  0  0
   27.9620    9.4300  -11.1040 C   0  0  0  0  0  0  0  0  0  0  0  0
   26.8670    9.9740  -10.5790 C   0  0  0  0  0  0  0  0  0  0  0  0
   26.1030    9.2370   -9.6820 C   0  0  0  0  0  0  0  0  0  0  0  0
   28.7510   10.1370  -12.0000 C   0  0  0  0  0  0  0  0  0  0  0  0
   29.8970    9.5580  -12.5260 C   0  0  0  0  0  0  0  0  0  0  0  0
   30.2560    8.2680  -12.1550 C   0  0  0  0  0  0  0  0  0  0  0  0
   29.5050    7.5570  -11.2390 C   0  0  0  0  0  0  0  0  0  0  0  0
   25.9060    7.6990   -7.1510 C   0  0  1  0  0  0  0  0  0  0  0  0
   24.9660    9.7840   -9.1340 N   0  0  0  0  0  0  0  0  0  0  0  0
   24.7600   10.9760   -8.4380 C   0  0  0  0  0  0  0  0  0  0  0  0
   25.8320   11.8580   -8.5110 N   0  0  0  0  0  0  0  0  0  0  0  0
   25.7670   13.0860   -7.8640 C   0  0  0  0  0  0  0  0  0  0  0  0
   24.6300   13.4340   -7.1460 C   0  0  0  0  0  0  0  0  0  0  0  0
   23.5580   12.5540   -7.0710 C   0  0  0  0  0  0  0  0  0  0  0  0
   23.6130   11.3370   -7.7440 C   0  0  0  0  0  0  0  0  0  0  0  0
   26.9310   14.0410   -7.9430 C   0  0  1  0  0  0  0  0  0  0  0  0
   24.5590   14.7680   -6.4450 C   0  0  1  0  0  0  0  0  0  0  0  0
   26.5694   10.9971  -10.8523 H   0  0  0  0  0  0  0  0  0  0  0  0
   28.4675   11.1584  -12.2939 H   0  0  0  0  0  0  0  0  0  0  0  0
   30.5211   10.1200  -13.2364 H   0  0  0  0  0  0  0  0  0  0  0  0
   31.1512    7.8062  -12.5970 H   0  0  0  0  0  0  0  0  0  0  0  0
   29.8223    6.5563  -10.9107 H   0  0  0  0  0  0  0  0  0  0  0  0
   25.6387    6.8987   -6.4452 H   0  0  0  0  0  0  0  0  0  0  0  0
   26.9524    7.9968   -6.9885 H   0  0  0  0  0  0  0  0  0  0  0  0
   25.2486    8.5659   -6.9885 H   0  0  0  0  0  0  0  0  0  0  0  0
   24.1176    9.2136   -9.2594 H   0  0  0  0  0  0  0  0  0  0  0  0
   22.6679   12.8183   -6.4812 H   0  0  0  0  0  0  0  0  0  0  0  0
   22.7462   10.6600   -7.7260 H   0  0  0  0  0  0  0  0  0  0  0  0
   27.2561   14.3077   -6.9265 H   0  0  0  0  0  0  0  0  0  0  0  0
   27.7628   13.5617   -8.4800 H   0  0  0  0  0  0  0  0  0  0  0  0
   26.6234   14.9504   -8.4800 H   0  0  0  0  0  0  0  0  0  0  0  0
   24.5674   14.6110   -5.3563 H   0  0  0  0  0  0  0  0  0  0  0  0
   25.4258   15.3806   -6.7338 H   0  0  0  0  0  0  0  0  0  0  0  0
   23.6321   15.2851   -6.7338 H   0  0  0  0  0  0  0  0  0  0  0  0
  1 11  1  0
  1  5  1  0
  1  2  2  0
  2  3  1  0
  3  7  2  0
  3  4  1  0
  5  8  1  0
  5  6  2  0
  6  7  1  0
  7 13  1  0
  8  9  2  0
  9 10  1  0
 10 11  2  0
 13 14  1  0
 14 15  2  0
 14 19  1  0
 15 16  1  0
 16 20  1  0
 16 17  2  0
 17 18  1  0
 17 21  1  0
 18 19  2  0
  4 12  1  0
  6 22  1  0
  8 23  1  0
  9 24  1  0
 10 25  1  0
 11 26  1  0
 12 27  1  1
 12 28  1  0
 12 29  1  0
 13 30  1  0
 18 31  1  0
 19 32  1  0
 20 33  1  1
 20 34  1  0
 20 35  1  0
 21 36  1  1
 21 37  1  0
 21 38  1  0
M  END
>  <Pose ID>  (88)
148

>  <Score>  (88)
-6.8599534034729

>  <smiles>  (88)
COc1nc2ccccc2cc1Nc1ccc(C)c(C)n1

$$$$

     RDKit          3D

 31 33  0  0  0  0  0  0  0  0999 V2000
   27.8100    8.2670  -10.2890 C   0  0  0  0  0  0  0  0  0  0  0  0
   27.4400    7.0610   -9.7050 N   0  0  0  0  0  0  0  0  0  0  0  0
   26.4640    7.0420   -8.7130 C   0  0  0  0  0  0  0  0  0  0  0  0
   25.8600    8.2210   -8.3080 C   0  0  0  0  0  0  0  0  0  0  0  0
   26.2330    9.4300   -8.8910 C   0  0  0  0  0  0  0  0  0  0  0  0
   27.2300    9.4520   -9.8600 C   0  0  0  0  0  0  0  0  0  0  0  0
   28.7530    8.2830  -11.2880 N   0  0  0  0  0  0  0  0  0  0  0  0
   29.1400    9.4890  -11.9540 C   0  0  0  0  0  0  0  0  0  0  0  0
   30.4810    9.8310  -12.0680 N   0  0  0  0  0  0  0  0  0  0  0  0
   30.8460   11.0110  -12.7060 C   0  0  0  0  0  0  0  0  0  0  0  0
   29.8670   11.8490  -13.2280 C   0  0  0  0  0  0  0  0  0  0  0  0
   28.5240   11.5050  -13.1130 N   0  0  0  0  0  0  0  0  0  0  0  0
   28.1620   10.3250  -12.4750 C   0  0  0  0  0  0  0  0  0  0  0  0
   27.4670   10.7850  -10.2470 C   0  0  0  0  0  0  0  0  0  0  0  0
   28.7960   11.3760  -10.4540 C   0  0  0  0  0  0  0  0  0  0  0  0
   28.5090   12.7530  -10.8330 C   0  0  0  0  0  0  0  0  0  0  0  0
   27.2330   12.9020  -10.7800 O   0  0  0  0  0  0  0  0  0  0  0  0
   26.6580   11.7850  -10.4080 C   0  0  0  0  0  0  0  0  0  0  0  0
   30.2610   13.1300  -13.9190 C   0  0  1  0  0  0  0  0  0  0  0  0
   26.1715    6.0883   -8.2494 H   0  0  0  0  0  0  0  0  0  0  0  0
   25.0862    8.2026   -7.5264 H   0  0  0  0  0  0  0  0  0  0  0  0
   25.7401   10.3648   -8.5856 H   0  0  0  0  0  0  0  0  0  0  0  0
   29.1967    7.3964  -11.5672 H   0  0  0  0  0  0  0  0  0  0  0  0
   31.9083   11.2814  -12.7977 H   0  0  0  0  0  0  0  0  0  0  0  0
   27.1001   10.0532  -12.3827 H   0  0  0  0  0  0  0  0  0  0  0  0
   29.7780   10.8920  -10.3477 H   0  0  0  0  0  0  0  0  0  0  0  0
   29.2455   13.5209  -11.1121 H   0  0  0  0  0  0  0  0  0  0  0  0
   25.5733   11.7022  -10.2450 H   0  0  0  0  0  0  0  0  0  0  0  0
   30.4965   13.8958  -13.1652 H   0  0  0  0  0  0  0  0  0  0  0  0
   31.1454   12.9503  -14.5479 H   0  0  0  0  0  0  0  0  0  0  0  0
   29.4285   13.4784  -14.5479 H   0  0  0  0  0  0  0  0  0  0  0  0
  1  7  1  0
  1  6  1  0
  1  2  2  0
  2  3  1  0
  3  4  2  0
  4  5  1  0
  5  6  2  0
  6 14  1  0
  7  8  1  0
  8 13  1  0
  8  9  2  0
  9 10  1  0
 10 11  2  0
 11 19  1  0
 11 12  1  0
 12 13  2  0
 14 15  1  0
 14 18  2  0
 15 16  2  0
 16 17  1  0
 17 18  1  0
  3 20  1  0
  4 21  1  0
  5 22  1  0
  7 23  1  0
 10 24  1  0
 13 25  1  0
 15 26  1  0
 16 27  1  0
 18 28  1  0
 19 29  1  1
 19 30  1  0
 19 31  1  0
M  END
>  <Pose ID>  (89)
6

>  <Score>  (89)
-6.84783411026001

>  <smiles>  (89)
Cc1cnc(Nc2ncccc2-c2ccoc2)cn1

$$$$

     RDKit          3D

 24 25  0  0  0  0  0  0  0  0999 V2000
   26.3860    7.0420   -8.4770 C   0  0  0  0  0  0  0  0  0  0  0  0
   27.3050    7.0890   -9.5180 N   0  0  0  0  0  0  0  0  0  0  0  0
   27.6590    8.3110  -10.0790 C   0  0  0  0  0  0  0  0  0  0  0  0
   28.5620    8.0040  -11.0600 N   0  0  0  0  0  0  0  0  0  0  0  0
   25.8220    8.2140   -7.9950 N   0  0  0  0  0  0  0  0  0  0  0  0
   26.1740    9.4380   -8.5530 C   0  0  0  0  0  0  0  0  0  0  0  0
   27.0940    9.4860   -9.5950 C   0  0  0  0  0  0  0  0  0  0  0  0
   29.1170    9.1490  -11.7720 C   0  0  0  0  0  0  0  0  0  0  0  0
   30.4730    9.3310  -12.0210 N   0  0  0  0  0  0  0  0  0  0  0  0
   30.9090   10.4540  -12.7130 C   0  0  0  0  0  0  0  0  0  0  0  0
   29.9890   11.3960  -13.1560 C   0  0  0  0  0  0  0  0  0  0  0  0
   28.6330   11.2160  -12.9080 C   0  0  0  0  0  0  0  0  0  0  0  0
   28.1960   10.0750  -12.2400 C   0  0  0  0  0  0  0  0  0  0  0  0
   25.5580   10.7110   -8.0290 C   0  0  1  0  0  0  0  0  0  0  0  0
   26.1055    6.0747   -8.0348 H   0  0  0  0  0  0  0  0  0  0  0  0
   28.8303    7.0341  -11.2797 H   0  0  0  0  0  0  0  0  0  0  0  0
   27.3748   10.4536  -10.0364 H   0  0  0  0  0  0  0  0  0  0  0  0
   31.9817   10.5972  -12.9100 H   0  0  0  0  0  0  0  0  0  0  0  0
   30.3339   12.2854  -13.7037 H   0  0  0  0  0  0  0  0  0  0  0  0
   27.9069   11.9732  -13.2387 H   0  0  0  0  0  0  0  0  0  0  0  0
   27.1201    9.9078  -12.0833 H   0  0  0  0  0  0  0  0  0  0  0  0
   25.5652   10.6961   -6.9291 H   0  0  0  0  0  0  0  0  0  0  0  0
   26.1382   11.5739   -8.3878 H   0  0  0  0  0  0  0  0  0  0  0  0
   24.5213   10.7915   -8.3878 H   0  0  0  0  0  0  0  0  0  0  0  0
  4  8  1  0
  4  3  1  0
  8 13  1  0
  8  9  2  0
  9 10  1  0
 10 11  2  0
 11 12  1  0
 12 13  2  0
  1  2  2  0
  1  5  1  0
  2  3  1  0
  3  7  2  0
  5  6  2  0
  6  7  1  0
  6 14  1  0
  1 15  1  0
  4 16  1  0
  7 17  1  0
 10 18  1  0
 11 19  1  0
 12 20  1  0
 13 21  1  0
 14 22  1  1
 14 23  1  0
 14 24  1  0
M  END
>  <Pose ID>  (90)
64

>  <Score>  (90)
-6.788226127624512

>  <smiles>  (90)
Cc1cc(Nc2ccccn2)ncn1

$$$$

     RDKit          3D

 34 36  0  0  0  0  0  0  0  0999 V2000
   26.4010    7.0460   -8.4330 C   0  0  0  0  0  0  0  0  0  0  0  0
   27.2000    7.2460   -9.5510 N   0  0  0  0  0  0  0  0  0  0  0  0
   27.3380    8.5210  -10.0870 C   0  0  0  0  0  0  0  0  0  0  0  0
   28.1730    8.3670  -11.1620 N   0  0  0  0  0  0  0  0  0  0  0  0
   25.7430    8.1180   -7.8480 N   0  0  0  0  0  0  0  0  0  0  0  0
   25.8790    9.3940   -8.3830 C   0  0  0  0  0  0  0  0  0  0  0  0
   26.6790    9.5960   -9.5040 C   0  0  0  0  0  0  0  0  0  0  0  0
   28.5040    9.5960  -11.8720 C   0  0  0  0  0  0  0  0  0  0  0  0
   29.7940    9.9630  -12.2380 N   0  0  0  0  0  0  0  0  0  0  0  0
   30.0120   11.1550  -12.9180 C   0  0  0  0  0  0  0  0  0  0  0  0
   28.9400   11.9800  -13.2320 C   0  0  0  0  0  0  0  0  0  0  0  0
   27.6500   11.6170  -12.8660 C   0  0  0  0  0  0  0  0  0  0  0  0
   27.4310   10.4070  -12.2110 C   0  0  0  0  0  0  0  0  0  0  0  0
   26.8160   10.8600  -10.0310 O   0  0  0  0  0  0  0  0  0  0  0  0
   26.2050   11.8750   -9.4580 C   0  0  0  0  0  0  0  0  0  0  0  0
   26.9390   12.9130   -8.8990 C   0  0  0  0  0  0  0  0  0  0  0  0
   26.2850   14.0180   -8.3670 C   0  0  0  0  0  0  0  0  0  0  0  0
   24.8960   14.0820   -8.3950 N   0  0  0  0  0  0  0  0  0  0  0  0
   24.1630   13.0440   -8.9540 C   0  0  0  0  0  0  0  0  0  0  0  0
   24.8180   11.9390   -9.4870 C   0  0  0  0  0  0  0  0  0  0  0  0
   28.4460   12.8420   -8.8680 C   0  0  1  0  0  0  0  0  0  0  0  0
   26.2897    6.0364   -8.0108 H   0  0  0  0  0  0  0  0  0  0  0  0
   28.5406    7.4483  -11.4481 H   0  0  0  0  0  0  0  0  0  0  0  0
   25.3547   10.2434   -7.9207 H   0  0  0  0  0  0  0  0  0  0  0  0
   31.0329   11.4449  -13.2073 H   0  0  0  0  0  0  0  0  0  0  0  0
   29.1127   12.9229  -13.7716 H   0  0  0  0  0  0  0  0  0  0  0  0
   26.8042   12.2828  -13.0926 H   0  0  0  0  0  0  0  0  0  0  0  0
   26.4060   10.0945  -11.9624 H   0  0  0  0  0  0  0  0  0  0  0  0
   26.8653   14.8410   -7.9243 H   0  0  0  0  0  0  0  0  0  0  0  0
   23.0644   13.0955   -8.9754 H   0  0  0  0  0  0  0  0  0  0  0  0
   24.2381   11.1165   -9.9311 H   0  0  0  0  0  0  0  0  0  0  0  0
   28.7909   12.8258   -7.8236 H   0  0  0  0  0  0  0  0  0  0  0  0
   28.7806   11.9271   -9.3789 H   0  0  0  0  0  0  0  0  0  0  0  0
   28.8651   13.7214   -9.3789 H   0  0  0  0  0  0  0  0  0  0  0  0
  1  2  2  0
  1  5  1  0
  2  3  1  0
  3  4  1  0
  3  7  2  0
  5  6  2  0
  6  7  1  0
  7 14  1  0
  4  8  1  0
  8  9  2  0
  8 13  1  0
  9 10  1  0
 10 11  2  0
 11 12  1  0
 12 13  2  0
 14 15  1  0
 15 20  1  0
 15 16  2  0
 16 21  1  0
 16 17  1  0
 17 18  2  0
 18 19  1  0
 19 20  2  0
  1 22  1  0
  4 23  1  0
  6 24  1  0
 10 25  1  0
 11 26  1  0
 12 27  1  0
 13 28  1  0
 17 29  1  0
 19 30  1  0
 20 31  1  0
 21 32  1  1
 21 33  1  0
 21 34  1  0
M  END
>  <Pose ID>  (91)
71

>  <Score>  (91)
-6.752597808837891

>  <smiles>  (91)
Cc1cnccc1Oc1cncnc1Nc1ccccn1

$$$$

     RDKit          3D

 25 28  0  0  0  0  0  0  0  0999 V2000
   27.5500    7.9780  -10.1350 C   0  0  0  0  0  0  0  0  0  0  0  0
   27.2490    7.0970   -9.1270 N   0  0  0  0  0  0  0  0  0  0  0  0
   26.3180    7.4120   -8.1930 C   0  0  0  0  0  0  0  0  0  0  0  0
   28.4610    7.9750  -11.1830 C   0  0  0  0  0  0  0  0  0  0  0  0
   28.5020    9.0430  -12.0730 C   0  0  0  0  0  0  0  0  0  0  0  0
   27.6290   10.1120  -11.9130 C   0  0  0  0  0  0  0  0  0  0  0  0
   26.7140   10.1130  -10.8650 C   0  0  0  0  0  0  0  0  0  0  0  0
   26.6770    9.0470   -9.9770 C   0  0  0  0  0  0  0  0  0  0  0  0
   25.8880    8.7160   -8.5860 O   0  0  0  0  0  0  0  0  0  0  0  0
   27.6700   11.1920  -12.8140 C   0  0  0  0  0  0  0  0  0  0  0  0
   26.6300   11.7720  -13.3870 N   0  0  0  0  0  0  0  0  0  0  0  0
   27.0320   12.8040  -14.0760 N   0  0  0  0  0  0  0  0  0  0  0  0
   28.2960   12.9400  -13.9960 C   0  0  0  0  0  0  0  0  0  0  0  0
   28.7420   11.9050  -13.1830 N   0  0  0  0  0  0  0  0  0  0  0  0
   30.0980   11.7740  -12.9070 C   0  0  0  0  0  0  0  0  0  0  0  0
   31.0070   12.6780  -13.4430 C   0  0  0  0  0  0  0  0  0  0  0  0
   30.5610   13.7130  -14.2560 C   0  0  0  0  0  0  0  0  0  0  0  0
   29.2050   13.8440  -14.5330 N   0  0  0  0  0  0  0  0  0  0  0  0
   25.9764    6.8089   -7.3389 H   0  0  0  0  0  0  0  0  0  0  0  0
   29.1507    7.1274  -11.3094 H   0  0  0  0  0  0  0  0  0  0  0  0
   29.2246    9.0414  -12.9024 H   0  0  0  0  0  0  0  0  0  0  0  0
   26.0206   10.9578  -10.7403 H   0  0  0  0  0  0  0  0  0  0  0  0
   30.4516   10.9545  -12.2641 H   0  0  0  0  0  0  0  0  0  0  0  0
   32.0799   12.5743  -13.2237 H   0  0  0  0  0  0  0  0  0  0  0  0
   31.2808   14.4285  -14.6803 H   0  0  0  0  0  0  0  0  0  0  0  0
  1  4  2  0
  1  8  1  0
  1  2  1  0
  2  3  2  0
  3  9  1  0
  4  5  1  0
  5  6  2  0
  6 10  1  0
  6  7  1  0
  7  8  2  0
  8  9  1  0
 10 11  2  0
 10 14  1  0
 11 12  1  0
 12 13  2  0
 13 18  1  0
 13 14  1  0
 14 15  1  0
 15 16  2  0
 16 17  1  0
 17 18  2  0
  3 19  1  0
  4 20  1  0
  5 21  1  0
  7 22  1  0
 15 23  1  0
 16 24  1  0
 17 25  1  0
M  END
>  <Pose ID>  (92)
124

>  <Score>  (92)
-6.73673677444458

>  <smiles>  (92)
c1cnc2nnc(-c3ccc4ncoc4c3)n2c1

$$$$

     RDKit          3D

 31 33  0  0  0  0  0  0  0  0999 V2000
   27.2620    8.3420   -9.5530 C   0  0  0  0  0  0  0  0  0  0  0  0
   26.8810    7.0950   -9.0350 N   0  0  0  0  0  0  0  0  0  0  0  0
   26.3410    7.0510   -7.7560 C   0  0  0  0  0  0  0  0  0  0  0  0
   26.1850    8.2220   -7.0260 N   0  0  0  0  0  0  0  0  0  0  0  0
   27.0540    9.4450   -8.7330 C   0  0  0  0  0  0  0  0  0  0  0  0
   26.5700    9.4350   -7.5760 C   0  0  0  0  0  0  0  0  0  0  0  0
   27.8090    8.5080  -10.8180 N   0  0  0  0  0  0  0  0  0  0  0  0
   28.1500    9.7800  -11.2660 C   0  0  0  0  0  0  0  0  0  0  0  0
   27.9430   10.8830  -10.4470 C   0  0  0  0  0  0  0  0  0  0  0  0
   27.3940   10.7180   -9.1820 C   0  0  0  0  0  0  0  0  0  0  0  0
   28.6980   10.1990  -12.4540 N   0  0  0  0  0  0  0  0  0  0  0  0
   29.0570   11.3910  -12.9250 C   0  0  1  0  0  0  0  0  0  0  0  0
   27.9090   11.9740  -13.7470 C   0  0  1  0  0  0  0  0  0  0  0  0
   27.7400   13.4480  -13.2590 C   0  0  1  0  0  0  0  0  0  0  0  0
   28.9430   14.1890  -13.3580 O   0  0  0  0  0  0  0  0  0  0  0  0
   29.9170   13.6160  -12.4560 C   0  0  1  0  0  0  0  0  0  0  0  0
   30.2930   12.2460  -12.9600 C   0  0  1  0  0  0  0  0  0  0  0  0
   26.0366    6.0876   -7.3209 H   0  0  0  0  0  0  0  0  0  0  0  0
   26.4533   10.3702   -7.0088 H   0  0  0  0  0  0  0  0  0  0  0  0
   28.2143   11.8885  -10.8010 H   0  0  0  0  0  0  0  0  0  0  0  0
   27.2280   11.5924   -8.5355 H   0  0  0  0  0  0  0  0  0  0  0  0
   28.8661    9.4305  -13.1189 H   0  0  0  0  0  0  0  0  0  0  0  0
   29.4611   10.9121  -13.8291 H   0  0  0  0  0  0  0  0  0  0  0  0
   28.1556   11.9515  -14.8188 H   0  0  0  0  0  0  0  0  0  0  0  0
   26.9827   11.3957  -13.6148 H   0  0  0  0  0  0  0  0  0  0  0  0
   26.9711   13.9382  -13.8742 H   0  0  0  0  0  0  0  0  0  0  0  0
   27.4488   13.4198  -12.1986 H   0  0  0  0  0  0  0  0  0  0  0  0
   30.8109   14.2560  -12.4209 H   0  0  0  0  0  0  0  0  0  0  0  0
   29.4926   13.5403  -11.4440 H   0  0  0  0  0  0  0  0  0  0  0  0
   31.0691   11.8092  -12.3143 H   0  0  0  0  0  0  0  0  0  0  0  0
   30.6899   12.3077  -13.9841 H   0  0  0  0  0  0  0  0  0  0  0  0
  1  7  1  0
  1  2  2  0
  1  5  1  0
  2  3  1  0
  3  4  2  0
  4  6  1  0
  5 10  1  0
  5  6  2  0
  7  8  2  0
  8 11  1  0
  8  9  1  0
  9 10  2  0
 11 12  1  0
 12 13  1  0
 12 17  1  0
 13 14  1  0
 14 15  1  0
 15 16  1  0
 16 17  1  0
  3 18  1  0
  6 19  1  0
  9 20  1  0
 10 21  1  0
 11 22  1  0
 12 23  1  1
 13 24  1  6
 13 25  1  0
 14 26  1  6
 14 27  1  0
 16 28  1  1
 16 29  1  0
 17 30  1  1
 17 31  1  0
M  END
>  <Pose ID>  (93)
179

>  <Score>  (93)
-6.728277683258057

>  <smiles>  (93)
c1ncc2ccc(NC3CCOCC3)nc2n1

$$$$

     RDKit          3D

 38 41  0  0  0  0  0  0  0  0999 V2000
   28.1370    8.0680  -10.4780 C   0  0  0  0  0  0  0  0  0  0  0  0
   27.4430    7.0420   -9.8470 N   0  0  0  0  0  0  0  0  0  0  0  0
   26.3310    7.3330   -9.0660 C   0  0  0  0  0  0  0  0  0  0  0  0
   25.9080    8.6480   -8.9200 N   0  0  0  0  0  0  0  0  0  0  0  0
   26.5990    9.6750   -9.5520 C   0  0  0  0  0  0  0  0  0  0  0  0
   27.7140    9.3860  -10.3310 C   0  0  0  0  0  0  0  0  0  0  0  0
   26.3910   11.0030   -9.5600 N   0  0  0  0  0  0  0  0  0  0  0  0
   27.2440   11.5390  -10.2570 N   0  0  0  0  0  0  0  0  0  0  0  0
   28.0720   10.6620  -10.7640 C   0  0  0  0  0  0  0  0  0  0  0  0
   29.1870   10.7460  -11.6120 C   0  0  0  0  0  0  0  0  0  0  0  0
   29.5780   12.0380  -12.0990 C   0  0  0  0  0  0  0  0  0  0  0  0
   30.5750   11.9760  -12.8290 C   0  0  0  0  0  0  0  0  0  0  0  0
   29.9790    9.8080  -12.1590 O   0  0  0  0  0  0  0  0  0  0  0  0
   30.8500   10.4340  -12.9130 C   0  0  0  0  0  0  0  0  0  0  0  0
   28.8570   13.3180  -11.7610 C   0  0  1  0  0  0  0  0  0  0  0  0
   29.4760   13.9830  -10.6220 N   0  0  0  0  0  0  0  0  0  0  0  0
   28.8320   15.1170   -9.9310 C   0  0  0  0  0  0  0  0  0  0  0  0
   27.4880   15.0900   -9.5780 C   0  0  0  0  0  0  0  0  0  0  0  0
   26.9190   16.1780   -8.9250 C   0  0  0  0  0  0  0  0  0  0  0  0
   27.6940   17.2910   -8.6280 C   0  0  0  0  0  0  0  0  0  0  0  0
   29.0370   17.3190   -8.9820 C   0  0  0  0  0  0  0  0  0  0  0  0
   29.6060   16.2330   -9.6340 C   0  0  0  0  0  0  0  0  0  0  0  0
   27.0760   18.4720   -7.9220 C   0  0  1  0  0  0  0  0  0  0  0  0
   29.0197    7.8385  -11.0930 H   0  0  0  0  0  0  0  0  0  0  0  0
   25.7852    6.5212   -8.5629 H   0  0  0  0  0  0  0  0  0  0  0  0
   25.0820    8.8621   -8.3432 H   0  0  0  0  0  0  0  0  0  0  0  0
   31.1311   12.7988  -13.3021 H   0  0  0  0  0  0  0  0  0  0  0  0
   31.6432    9.9564  -13.5069 H   0  0  0  0  0  0  0  0  0  0  0  0
   28.8906   13.9900  -12.6313 H   0  0  0  0  0  0  0  0  0  0  0  0
   27.8163   13.0748  -11.5006 H   0  0  0  0  0  0  0  0  0  0  0  0
   30.3922   13.6511  -10.2884 H   0  0  0  0  0  0  0  0  0  0  0  0
   26.8745   14.2083   -9.8151 H   0  0  0  0  0  0  0  0  0  0  0  0
   25.8557   16.1568   -8.6440 H   0  0  0  0  0  0  0  0  0  0  0  0
   29.6497   18.2015   -8.7458 H   0  0  0  0  0  0  0  0  0  0  0  0
   30.6691   16.2557   -9.9155 H   0  0  0  0  0  0  0  0  0  0  0  0
   27.1508   18.3290   -6.8339 H   0  0  0  0  0  0  0  0  0  0  0  0
   27.6090   19.3906   -8.2086 H   0  0  0  0  0  0  0  0  0  0  0  0
   26.0175   18.5577   -8.2086 H   0  0  0  0  0  0  0  0  0  0  0  0
 10 13  1  0
 10 11  2  0
 10  9  1  0
 11 12  1  0
 11 15  1  0
 12 14  2  0
 13 14  1  0
  1  6  2  0
  1  2  1  0
  2  3  2  0
  3  4  1  0
  4  5  1  0
  5  6  1  0
  5  7  2  0
  6  9  1  0
  7  8  1  0
  8  9  2  0
 15 16  1  0
 16 17  1  0
 17 22  1  0
 17 18  2  0
 18 19  1  0
 19 20  2  0
 20 21  1  0
 20 23  1  0
 21 22  2  0
  1 24  1  0
  3 25  1  0
  4 26  1  0
 12 27  1  0
 14 28  1  0
 15 29  1  6
 15 30  1  0
 16 31  1  0
 18 32  1  0
 19 33  1  0
 21 34  1  0
 22 35  1  0
 23 36  1  1
 23 37  1  0
 23 38  1  0
M  END
>  <Pose ID>  (94)
35

>  <Score>  (94)
-6.724501132965088

>  <smiles>  (94)
Cc1ccc(NCc2ccoc2-c2nnc3[nH]cncc2-3)cc1

$$$$

     RDKit          3D

 38 41  0  0  0  0  0  0  0  0999 V2000
   28.1330    8.0440  -10.4450 C   0  0  0  0  0  0  0  0  0  0  0  0
   27.4270    7.0420   -9.7920 N   0  0  0  0  0  0  0  0  0  0  0  0
   26.2990    7.3570   -9.0450 C   0  0  0  0  0  0  0  0  0  0  0  0
   25.8730    8.6780   -8.9570 N   0  0  0  0  0  0  0  0  0  0  0  0
   26.5740    9.6820   -9.6120 C   0  0  0  0  0  0  0  0  0  0  0  0
   27.7050    9.3640  -10.3570 C   0  0  0  0  0  0  0  0  0  0  0  0
   26.3630   11.0070   -9.6740 N   0  0  0  0  0  0  0  0  0  0  0  0
   27.2290   11.5190  -10.3720 N   0  0  0  0  0  0  0  0  0  0  0  0
   28.0680   10.6240  -10.8280 C   0  0  0  0  0  0  0  0  0  0  0  0
   29.2010   10.6810  -11.6570 C   0  0  0  0  0  0  0  0  0  0  0  0
   29.5990   11.9540  -12.1840 C   0  0  0  0  0  0  0  0  0  0  0  0
   30.6120   11.8700  -12.8910 C   0  0  0  0  0  0  0  0  0  0  0  0
   30.0060    9.7260  -12.1520 O   0  0  0  0  0  0  0  0  0  0  0  0
   30.8920   10.3250  -12.9120 C   0  0  0  0  0  0  0  0  0  0  0  0
   28.8710   13.2450  -11.9080 C   0  0  1  0  0  0  0  0  0  0  0  0
   29.4640   13.9540  -10.7830 N   0  0  0  0  0  0  0  0  0  0  0  0
   28.7940   15.0960  -10.1510 C   0  0  0  0  0  0  0  0  0  0  0  0
   28.3860   15.0060   -8.8250 C   0  0  0  0  0  0  0  0  0  0  0  0
   27.7520   16.0840   -8.2180 C   0  0  0  0  0  0  0  0  0  0  0  0
   27.5270   17.2530   -8.9360 C   0  0  0  0  0  0  0  0  0  0  0  0
   27.9350   17.3430  -10.2620 C   0  0  0  0  0  0  0  0  0  0  0  0
   28.5680   16.2640  -10.8700 C   0  0  0  0  0  0  0  0  0  0  0  0
   28.6310   13.7380   -8.0450 C   0  0  1  0  0  0  0  0  0  0  0  0
   29.0296    7.7937  -11.0310 H   0  0  0  0  0  0  0  0  0  0  0  0
   25.7437    6.5631   -8.5240 H   0  0  0  0  0  0  0  0  0  0  0  0
   25.0357    8.9122   -8.4048 H   0  0  0  0  0  0  0  0  0  0  0  0
   31.1756   12.6769  -13.3822 H   0  0  0  0  0  0  0  0  0  0  0  0
   31.6978    9.8272  -13.4714 H   0  0  0  0  0  0  0  0  0  0  0  0
   28.9222   13.8839  -12.8020 H   0  0  0  0  0  0  0  0  0  0  0  0
   27.8258   13.0091  -11.6591 H   0  0  0  0  0  0  0  0  0  0  0  0
   30.3778   13.6457  -10.4214 H   0  0  0  0  0  0  0  0  0  0  0  0
   27.4282   16.0120   -7.1692 H   0  0  0  0  0  0  0  0  0  0  0  0
   27.0264   18.1064   -8.4552 H   0  0  0  0  0  0  0  0  0  0  0  0
   27.7572   18.2678  -10.8305 H   0  0  0  0  0  0  0  0  0  0  0  0
   28.8897   16.3349  -11.9195 H   0  0  0  0  0  0  0  0  0  0  0  0
   28.5888   13.9563   -6.9677 H   0  0  0  0  0  0  0  0  0  0  0  0
   27.8596   12.9962   -8.2993 H   0  0  0  0  0  0  0  0  0  0  0  0
   29.6232   13.3370   -8.2993 H   0  0  0  0  0  0  0  0  0  0  0  0
 10 11  2  0
 10 13  1  0
 10  9  1  0
 11 12  1  0
 11 15  1  0
 12 14  2  0
 13 14  1  0
  1  6  2  0
  1  2  1  0
  2  3  2  0
  3  4  1  0
  4  5  1  0
  5  6  1  0
  5  7  2  0
  6  9  1  0
  7  8  1  0
  8  9  2  0
 15 16  1  0
 16 17  1  0
 17 22  1  0
 17 18  2  0
 18 19  1  0
 18 23  1  0
 19 20  2  0
 20 21  1  0
 21 22  2  0
  1 24  1  0
  3 25  1  0
  4 26  1  0
 12 27  1  0
 14 28  1  0
 15 29  1  6
 15 30  1  0
 16 31  1  0
 19 32  1  0
 20 33  1  0
 21 34  1  0
 22 35  1  0
 23 36  1  1
 23 37  1  0
 23 38  1  0
M  END
>  <Pose ID>  (95)
33

>  <Score>  (95)
-6.72119665145874

>  <smiles>  (95)
Cc1ccccc1NCc1ccoc1-c1nnc2[nH]cncc1-2

$$$$

     RDKit          3D

 40 42  0  0  0  0  0  0  0  0999 V2000
   28.2270    8.2980  -10.6400 C   0  0  0  0  0  0  0  0  0  0  0  0
   27.6180    7.4600   -9.8280 N   0  0  0  0  0  0  0  0  0  0  0  0
   26.4520    7.9040   -9.2170 C   0  0  0  0  0  0  0  0  0  0  0  0
   25.7830    7.0870   -8.3950 O   0  0  0  0  0  0  0  0  0  0  0  0
   27.7750    9.5810  -10.9280 C   0  0  0  0  0  0  0  0  0  0  0  0
   26.6620   10.0180  -10.3480 C   0  0  0  0  0  0  0  0  0  0  0  0
   25.9720    9.1800   -9.4760 C   0  0  0  0  0  0  0  0  0  0  0  0
   28.4920   10.3880  -11.8000 C   0  0  0  0  0  0  0  0  0  0  0  0
   29.6580    9.9180  -12.3860 C   0  0  0  0  0  0  0  0  0  0  0  0
   30.1110    8.6350  -12.0990 C   0  0  0  0  0  0  0  0  0  0  0  0
   29.4340    7.8250  -11.2070 C   0  0  0  0  0  0  0  0  0  0  0  0
   25.9470    7.4930   -7.0350 C   0  0  1  0  0  0  0  0  0  0  0  0
   24.8170    9.6200   -8.8720 N   0  0  0  0  0  0  0  0  0  0  0  0
   24.4950   10.7640   -8.0740 C   0  0  0  0  0  0  0  0  0  0  0  0
   25.5190   11.7020   -8.1310 N   0  0  0  0  0  0  0  0  0  0  0  0
   25.4140   12.8900   -7.4170 C   0  0  0  0  0  0  0  0  0  0  0  0
   24.2830   13.1400   -6.6480 C   0  0  0  0  0  0  0  0  0  0  0  0
   23.2580   12.2020   -6.5930 N   0  0  0  0  0  0  0  0  0  0  0  0
   23.3650   11.0130   -7.2980 C   0  0  0  0  0  0  0  0  0  0  0  0
   24.1900   14.2040   -6.0090 O   0  0  0  0  0  0  0  0  0  0  0  0
   28.2570   11.6640  -12.2350 N   0  0  0  0  0  0  0  0  0  0  0  0
   28.5090   12.8030  -11.3410 C   0  0  1  0  0  0  0  0  0  0  0  0
   27.7150   11.8870  -13.5950 C   0  0  1  0  0  0  0  0  0  0  0  0
   26.2894   11.0321  -10.5548 H   0  0  0  0  0  0  0  0  0  0  0  0
   30.2240   10.5597  -13.0773 H   0  0  0  0  0  0  0  0  0  0  0  0
   31.0214    8.2593  -12.5890 H   0  0  0  0  0  0  0  0  0  0  0  0
   29.8260    6.8317  -10.9429 H   0  0  0  0  0  0  0  0  0  0  0  0
   25.6193    6.6819   -6.3681 H   0  0  0  0  0  0  0  0  0  0  0  0
   27.0067    7.7185   -6.8449 H   0  0  0  0  0  0  0  0  0  0  0  0
   25.3412    8.3912   -6.8449 H   0  0  0  0  0  0  0  0  0  0  0  0
   24.0140    8.9938   -9.0267 H   0  0  0  0  0  0  0  0  0  0  0  0
   26.2251   13.6318   -7.4604 H   0  0  0  0  0  0  0  0  0  0  0  0
   22.4180   12.3908   -6.0276 H   0  0  0  0  0  0  0  0  0  0  0  0
   22.5585   10.2669   -7.2447 H   0  0  0  0  0  0  0  0  0  0  0  0
   28.4356   12.4712  -10.2948 H   0  0  0  0  0  0  0  0  0  0  0  0
   29.5169   13.2011  -11.5295 H   0  0  0  0  0  0  0  0  0  0  0  0
   27.7631   13.5892  -11.5295 H   0  0  0  0  0  0  0  0  0  0  0  0
   26.7000   12.3046  -13.5213 H   0  0  0  0  0  0  0  0  0  0  0  0
   28.3629   12.5916  -14.1370 H   0  0  0  0  0  0  0  0  0  0  0  0
   27.6795   10.9304  -14.1370 H   0  0  0  0  0  0  0  0  0  0  0  0
  1 11  1  0
  1  5  1  0
  1  2  2  0
  2  3  1  0
  3  7  2  0
  3  4  1  0
  5  8  1  0
  5  6  2  0
  6  7  1  0
  7 13  1  0
  8  9  2  0
  8 21  1  0
  9 10  1  0
 10 11  2  0
 21 23  1  0
 21 22  1  0
  4 12  1  0
 13 14  1  0
 14 15  1  0
 14 19  2  0
 15 16  2  0
 16 17  1  0
 17 18  1  0
 17 20  2  0
 18 19  1  0
  6 24  1  0
  9 25  1  0
 10 26  1  0
 11 27  1  0
 12 28  1  1
 12 29  1  0
 12 30  1  0
 13 31  1  0
 16 32  1  0
 18 33  1  0
 19 34  1  0
 22 35  1  1
 22 36  1  0
 22 37  1  0
 23 38  1  1
 23 39  1  0
 23 40  1  0
M  END
>  <Pose ID>  (96)
144

>  <Score>  (96)
-6.703461170196533

>  <smiles>  (96)
COc1nc2cccc(N(C)C)c2cc1Nc1c[nH]c(=O)cn1

$$$$

     RDKit          3D

 26 28  0  0  0  0  0  0  0  0999 V2000
   28.1280    8.0340  -10.3830 C   0  0  0  0  0  0  0  0  0  0  0  0
   27.4960    7.0420   -9.6430 N   0  0  0  0  0  0  0  0  0  0  0  0
   26.2400    7.2740   -9.0980 C   0  0  0  0  0  0  0  0  0  0  0  0
   25.6130    8.4980   -9.2940 N   0  0  0  0  0  0  0  0  0  0  0  0
   26.2410    9.4890  -10.0350 C   0  0  0  0  0  0  0  0  0  0  0  0
   27.5000    9.2580  -10.5800 C   0  0  0  0  0  0  0  0  0  0  0  0
   25.8440   10.7340  -10.3570 N   0  0  0  0  0  0  0  0  0  0  0  0
   26.7130   11.2690  -11.0320 N   0  0  0  0  0  0  0  0  0  0  0  0
   27.7310   10.4730  -11.2240 C   0  0  0  0  0  0  0  0  0  0  0  0
   28.9490   10.5890  -11.9170 C   0  0  0  0  0  0  0  0  0  0  0  0
   29.2220   11.8140  -12.6150 C   0  0  0  0  0  0  0  0  0  0  0  0
   30.3220   11.7930  -13.1770 C   0  0  0  0  0  0  0  0  0  0  0  0
   29.9480    9.7220  -12.1400 O   0  0  0  0  0  0  0  0  0  0  0  0
   30.8320   10.3360  -12.8900 C   0  0  0  0  0  0  0  0  0  0  0  0
   28.2750   12.9880  -12.6570 C   0  0  1  0  0  0  0  0  0  0  0  0
   31.0070   12.8950  -13.9470 C   0  0  1  0  0  0  0  0  0  0  0  0
   29.1240    7.8507  -10.8123 H   0  0  0  0  0  0  0  0  0  0  0  0
   25.7415    6.4885   -8.5110 H   0  0  0  0  0  0  0  0  0  0  0  0
   24.6816    8.6700   -8.8892 H   0  0  0  0  0  0  0  0  0  0  0  0
   31.7739    9.9022  -13.2568 H   0  0  0  0  0  0  0  0  0  0  0  0
   28.0268   13.2957  -11.6305 H   0  0  0  0  0  0  0  0  0  0  0  0
   28.7530   13.8259  -13.1856 H   0  0  0  0  0  0  0  0  0  0  0  0
   27.3549   12.6982  -13.1856 H   0  0  0  0  0  0  0  0  0  0  0  0
   31.4529   13.6123  -13.2422 H   0  0  0  0  0  0  0  0  0  0  0  0
   31.7966   12.4639  -14.5801 H   0  0  0  0  0  0  0  0  0  0  0  0
   30.2710   13.4122  -14.5801 H   0  0  0  0  0  0  0  0  0  0  0  0
  1  6  2  0
  1  2  1  0
  2  3  2  0
  3  4  1  0
  4  5  1  0
  5  6  1  0
  5  7  2  0
  6  9  1  0
  7  8  1  0
  8  9  2  0
  9 10  1  0
 10 11  2  0
 10 13  1  0
 11 12  1  0
 11 15  1  0
 12 16  1  0
 12 14  2  0
 13 14  1  0
  1 17  1  0
  3 18  1  0
  4 19  1  0
 14 20  1  0
 15 21  1  1
 15 22  1  0
 15 23  1  0
 16 24  1  1
 16 25  1  0
 16 26  1  0
M  END
>  <Pose ID>  (97)
25

>  <Score>  (97)
-6.681991100311279

>  <smiles>  (97)
Cc1coc(-c2nnc3[nH]cncc2-3)c1C

$$$$

     RDKit          3D

 21 22  0  0  0  0  0  0  0  0999 V2000
   26.4240    7.0420   -8.4480 C   0  0  0  0  0  0  0  0  0  0  0  0
   27.3320    7.0910   -9.4990 N   0  0  0  0  0  0  0  0  0  0  0  0
   27.6710    8.3120  -10.0700 C   0  0  0  0  0  0  0  0  0  0  0  0
   28.5650    8.0070  -11.0590 N   0  0  0  0  0  0  0  0  0  0  0  0
   25.8570    8.2130   -7.9660 N   0  0  0  0  0  0  0  0  0  0  0  0
   26.1940    9.4360   -8.5340 C   0  0  0  0  0  0  0  0  0  0  0  0
   27.1030    9.4860   -9.5860 C   0  0  0  0  0  0  0  0  0  0  0  0
   29.1040    9.1520  -11.7830 C   0  0  0  0  0  0  0  0  0  0  0  0
   30.4560    9.3420  -12.0480 N   0  0  0  0  0  0  0  0  0  0  0  0
   30.8760   10.4650  -12.7500 C   0  0  0  0  0  0  0  0  0  0  0  0
   29.9450   11.3980  -13.1880 C   0  0  0  0  0  0  0  0  0  0  0  0
   28.5930   11.2100  -12.9240 C   0  0  0  0  0  0  0  0  0  0  0  0
   28.1720   10.0690  -12.2460 C   0  0  0  0  0  0  0  0  0  0  0  0
   26.1549    6.0749   -7.9983 H   0  0  0  0  0  0  0  0  0  0  0  0
   28.8379    7.0380  -11.2767 H   0  0  0  0  0  0  0  0  0  0  0  0
   25.7424   10.3635   -8.1521 H   0  0  0  0  0  0  0  0  0  0  0  0
   27.3725   10.4534  -10.0349 H   0  0  0  0  0  0  0  0  0  0  0  0
   31.9455   10.6151  -12.9588 H   0  0  0  0  0  0  0  0  0  0  0  0
   30.2777   12.2867  -13.7444 H   0  0  0  0  0  0  0  0  0  0  0  0
   27.8579   11.9606  -13.2499 H   0  0  0  0  0  0  0  0  0  0  0  0
   27.0991    9.8946  -12.0774 H   0  0  0  0  0  0  0  0  0  0  0  0
  4  8  1  0
  4  3  1  0
  8 13  1  0
  8  9  2  0
  9 10  1  0
 10 11  2  0
 11 12  1  0
 12 13  2  0
  1  2  2  0
  1  5  1  0
  2  3  1  0
  3  7  2  0
  5  6  2  0
  6  7  1  0
  1 14  1  0
  4 15  1  0
  6 16  1  0
  7 17  1  0
 10 18  1  0
 11 19  1  0
 12 20  1  0
 13 21  1  0
M  END
>  <Pose ID>  (98)
62

>  <Score>  (98)
-6.660659313201904

>  <smiles>  (98)
c1ccc(Nc2ccncn2)nc1

$$$$

     RDKit          3D

 31 32  0  0  0  0  0  0  0  0999 V2000
   27.6950    8.3310  -10.1910 C   0  0  0  0  0  0  0  0  0  0  0  0
   27.4640    7.1300   -9.5330 N   0  0  0  0  0  0  0  0  0  0  0  0
   26.6930    7.1060   -8.3780 C   0  0  0  0  0  0  0  0  0  0  0  0
   26.1520    8.2850   -7.8790 N   0  0  0  0  0  0  0  0  0  0  0  0
   28.4250    8.2640  -11.2240 N   0  0  0  0  0  0  0  0  0  0  0  0
   26.3810    9.4870   -8.5370 C   0  0  0  0  0  0  0  0  0  0  0  0
   27.1400    9.5020   -9.7080 C   0  0  0  0  0  0  0  0  0  0  0  0
   28.6640    9.3790  -11.9080 C   0  0  0  0  0  0  0  0  0  0  0  0
   29.9360    9.9350  -11.9690 N   0  0  0  0  0  0  0  0  0  0  0  0
   30.1530   11.0990  -12.6970 C   0  0  0  0  0  0  0  0  0  0  0  0
   29.0950   11.7100  -13.3610 C   0  0  0  0  0  0  0  0  0  0  0  0
   27.8220   11.1540  -13.3010 C   0  0  0  0  0  0  0  0  0  0  0  0
   27.6160    9.9720  -12.5960 C   0  0  0  0  0  0  0  0  0  0  0  0
   29.1310    7.1590  -11.9030 C   0  0  1  0  0  0  0  0  0  0  0  0
   29.3090   12.8650  -14.0790 O   0  0  0  0  0  0  0  0  0  0  0  0
   29.5240   13.9500  -13.1860 C   0  0  1  0  0  0  0  0  0  0  0  0
   28.2660   14.7580  -12.8380 C   0  0  1  0  0  0  0  0  0  0  0  0
   26.5105    6.1539   -7.8582 H   0  0  0  0  0  0  0  0  0  0  0  0
   25.9656   10.4235   -8.1364 H   0  0  0  0  0  0  0  0  0  0  0  0
   27.2972   10.4473  -10.2480 H   0  0  0  0  0  0  0  0  0  0  0  0
   31.1610   11.5365  -12.7478 H   0  0  0  0  0  0  0  0  0  0  0  0
   26.9802   11.6470  -13.8093 H   0  0  0  0  0  0  0  0  0  0  0  0
   26.6193    9.5068  -12.5844 H   0  0  0  0  0  0  0  0  0  0  0  0
   29.5631    6.4828  -11.1507 H   0  0  0  0  0  0  0  0  0  0  0  0
   28.4211    6.6020  -12.5321 H   0  0  0  0  0  0  0  0  0  0  0  0
   29.9348    7.5691  -12.5321 H   0  0  0  0  0  0  0  0  0  0  0  0
   29.9405   13.5463  -12.2514 H   0  0  0  0  0  0  0  0  0  0  0  0
   30.2045   14.6440  -13.7011 H   0  0  0  0  0  0  0  0  0  0  0  0
   28.1633   14.8239  -11.7448 H   0  0  0  0  0  0  0  0  0  0  0  0
   28.3520   15.7702  -13.2599 H   0  0  0  0  0  0  0  0  0  0  0  0
   27.3812   14.2588  -13.2599 H   0  0  0  0  0  0  0  0  0  0  0  0
  1  5  1  0
  1  7  1  0
  1  2  2  0
  2  3  1  0
  3  4  2  0
  4  6  1  0
  5  8  1  0
  5 14  1  0
  6  7  2  0
  8 13  1  0
  8  9  2  0
  9 10  1  0
 10 11  2  0
 11 15  1  0
 11 12  1  0
 12 13  2  0
 15 16  1  0
 16 17  1  0
  3 18  1  0
  6 19  1  0
  7 20  1  0
 10 21  1  0
 12 22  1  0
 13 23  1  0
 14 24  1  1
 14 25  1  0
 14 26  1  0
 16 27  1  1
 16 28  1  0
 17 29  1  1
 17 30  1  0
 17 31  1  0
M  END
>  <Pose ID>  (99)
156

>  <Score>  (99)
-6.659982204437256

>  <smiles>  (99)
CCOc1ccc(N(C)c2ccncn2)nc1

$$$$

     RDKit          3D

 32 34  0  0  0  0  0  0  0  0999 V2000
   28.2620    8.2020  -10.6810 C   0  0  0  0  0  0  0  0  0  0  0  0
   27.6540    7.3940   -9.8380 N   0  0  0  0  0  0  0  0  0  0  0  0
   26.4620    7.8400   -9.2790 C   0  0  0  0  0  0  0  0  0  0  0  0
   25.7940    7.0520   -8.4300 O   0  0  0  0  0  0  0  0  0  0  0  0
   27.7870    9.4560  -11.0480 C   0  0  0  0  0  0  0  0  0  0  0  0
   26.6490    9.8960  -10.5190 C   0  0  0  0  0  0  0  0  0  0  0  0
   25.9590    9.0890   -9.6180 C   0  0  0  0  0  0  0  0  0  0  0  0
   28.5040   10.2340  -11.9460 C   0  0  0  0  0  0  0  0  0  0  0  0
   29.6960    9.7620  -12.4790 C   0  0  0  0  0  0  0  0  0  0  0  0
   30.1720    8.5080  -12.1120 C   0  0  0  0  0  0  0  0  0  0  0  0
   29.4930    7.7310  -11.1940 C   0  0  0  0  0  0  0  0  0  0  0  0
   25.9150    7.5350   -7.0900 C   0  0  1  0  0  0  0  0  0  0  0  0
   24.7800    9.5310   -9.0650 N   0  0  0  0  0  0  0  0  0  0  0  0
   24.4110   10.7070   -8.3380 C   0  0  0  0  0  0  0  0  0  0  0  0
   25.4130   11.6660   -8.4220 N   0  0  0  0  0  0  0  0  0  0  0  0
   25.2620   12.8880   -7.7770 C   0  0  0  0  0  0  0  0  0  0  0  0
   24.1080   13.1500   -7.0480 C   0  0  0  0  0  0  0  0  0  0  0  0
   23.1050   12.1910   -6.9650 N   0  0  0  0  0  0  0  0  0  0  0  0
   23.2570   10.9690   -7.6020 C   0  0  0  0  0  0  0  0  0  0  0  0
   23.9730   14.2440   -6.4700 O   0  0  0  0  0  0  0  0  0  0  0  0
   26.2568   10.8872  -10.7904 H   0  0  0  0  0  0  0  0  0  0  0  0
   28.1274   11.2260  -12.2359 H   0  0  0  0  0  0  0  0  0  0  0  0
   30.2633   10.3794  -13.1910 H   0  0  0  0  0  0  0  0  0  0  0  0
   31.1029    8.1294  -12.5594 H   0  0  0  0  0  0  0  0  0  0  0  0
   29.9022    6.7634  -10.8678 H   0  0  0  0  0  0  0  0  0  0  0  0
   25.7098    6.7159   -6.3851 H   0  0  0  0  0  0  0  0  0  0  0  0
   26.9354    7.9121   -6.9269 H   0  0  0  0  0  0  0  0  0  0  0  0
   25.1929    8.3486   -6.9269 H   0  0  0  0  0  0  0  0  0  0  0  0
   23.9965    8.8769   -9.2035 H   0  0  0  0  0  0  0  0  0  0  0  0
   26.0553   13.6472   -7.8435 H   0  0  0  0  0  0  0  0  0  0  0  0
   22.2477   12.3886   -6.4295 H   0  0  0  0  0  0  0  0  0  0  0  0
   22.4674   10.2069   -7.5265 H   0  0  0  0  0  0  0  0  0  0  0  0
  1 11  1  0
  1  5  1  0
  1  2  2  0
  2  3  1  0
  3  7  2  0
  3  4  1  0
  5  8  1  0
  5  6  2  0
  6  7  1  0
  7 13  1  0
  8  9  2  0
  9 10  1  0
 10 11  2  0
  4 12  1  0
 13 14  1  0
 14 15  1  0
 14 19  2  0
 15 16  2  0
 16 17  1  0
 17 18  1  0
 17 20  2  0
 18 19  1  0
  6 21  1  0
  8 22  1  0
  9 23  1  0
 10 24  1  0
 11 25  1  0
 12 26  1  1
 12 27  1  0
 12 28  1  0
 13 29  1  0
 16 30  1  0
 18 31  1  0
 19 32  1  0
M  END
>  <Pose ID>  (100)
132

>  <Score>  (100)
-6.63680362701416

>  <smiles>  (100)
COc1nc2ccccc2cc1Nc1c[nH]c(=O)cn1

$$$$

     RDKit          3D

 38 41  0  0  0  0  0  0  0  0999 V2000
   28.2880    8.2620  -10.7050 C   0  0  0  0  0  0  0  0  0  0  0  0
   27.7140    7.4350   -9.8550 N   0  0  0  0  0  0  0  0  0  0  0  0
   26.5230    7.8500   -9.2700 C   0  0  0  0  0  0  0  0  0  0  0  0
   25.8900    7.0420   -8.4130 O   0  0  0  0  0  0  0  0  0  0  0  0
   27.7750    9.5060  -11.0560 C   0  0  0  0  0  0  0  0  0  0  0  0
   26.6370    9.9150  -10.5030 C   0  0  0  0  0  0  0  0  0  0  0  0
   25.9850    9.0880   -9.5940 C   0  0  0  0  0  0  0  0  0  0  0  0
   28.4560   10.3050  -11.9630 C   0  0  0  0  0  0  0  0  0  0  0  0
   29.6490    9.8640  -12.5210 C   0  0  0  0  0  0  0  0  0  0  0  0
   30.1610    8.6210  -12.1710 C   0  0  0  0  0  0  0  0  0  0  0  0
   29.5180    7.8220  -11.2430 C   0  0  0  0  0  0  0  0  0  0  0  0
   26.0250    7.5230   -7.0730 C   0  0  1  0  0  0  0  0  0  0  0  0
   24.8050    9.5000   -9.0180 N   0  0  0  0  0  0  0  0  0  0  0  0
   24.4230   10.6620   -8.2780 C   0  0  0  0  0  0  0  0  0  0  0  0
   25.4000   11.6450   -8.3750 N   0  0  0  0  0  0  0  0  0  0  0  0
   25.2310   12.8610   -7.7210 C   0  0  0  0  0  0  0  0  0  0  0  0
   24.0850   13.0920   -6.9690 C   0  0  0  0  0  0  0  0  0  0  0  0
   23.1070   12.1090   -6.8730 N   0  0  0  0  0  0  0  0  0  0  0  0
   23.2760   10.8940   -7.5180 C   0  0  0  0  0  0  0  0  0  0  0  0
   24.1510   14.3750   -6.4160 C   0  0  0  0  0  0  0  0  0  0  0  0
   25.4090   14.8450   -6.7270 N   0  0  0  0  0  0  0  0  0  0  0  0
   26.1180   14.0240   -7.4290 C   0  0  0  0  0  0  0  0  0  0  0  0
   27.5510   14.2050   -7.8640 C   0  0  1  0  0  0  0  0  0  0  0  0
   26.2153   10.8975  -10.7617 H   0  0  0  0  0  0  0  0  0  0  0  0
   28.0505   11.2891  -12.2406 H   0  0  0  0  0  0  0  0  0  0  0  0
   30.1881   10.4987  -13.2397 H   0  0  0  0  0  0  0  0  0  0  0  0
   31.0915    8.2670  -12.6388 H   0  0  0  0  0  0  0  0  0  0  0  0
   29.9558    6.8627  -10.9299 H   0  0  0  0  0  0  0  0  0  0  0  0
   25.7970    6.7107   -6.3671 H   0  0  0  0  0  0  0  0  0  0  0  0
   27.0556    7.8714   -6.9106 H   0  0  0  0  0  0  0  0  0  0  0  0
   25.3262    8.3568   -6.9106 H   0  0  0  0  0  0  0  0  0  0  0  0
   24.0340    8.8293   -9.1474 H   0  0  0  0  0  0  0  0  0  0  0  0
   22.2549   12.2839   -6.3214 H   0  0  0  0  0  0  0  0  0  0  0  0
   22.5063   10.1130   -7.4308 H   0  0  0  0  0  0  0  0  0  0  0  0
   23.3650   14.8985   -5.8520 H   0  0  0  0  0  0  0  0  0  0  0  0
   28.1960   14.2865   -6.9767 H   0  0  0  0  0  0  0  0  0  0  0  0
   27.8635   13.3392   -8.4663 H   0  0  0  0  0  0  0  0  0  0  0  0
   27.6384   15.1213   -8.4663 H   0  0  0  0  0  0  0  0  0  0  0  0
 13  7  1  0
 13 14  1  0
 14 15  1  0
 14 19  2  0
 15 16  2  0
 16 22  1  0
 16 17  1  0
 17 18  1  0
 17 20  2  0
 18 19  1  0
 20 21  1  0
 21 22  2  0
 22 23  1  0
  1 11  1  0
  1  5  1  0
  1  2  2  0
  2  3  1  0
  3  7  2  0
  3  4  1  0
  5  8  1  0
  5  6  2  0
  6  7  1  0
  8  9  2  0
  9 10  1  0
 10 11  2  0
  4 12  1  0
  6 24  1  0
  8 25  1  0
  9 26  1  0
 10 27  1  0
 11 28  1  0
 12 29  1  1
 12 30  1  0
 12 31  1  0
 13 32  1  0
 18 33  1  0
 19 34  1  0
 20 35  1  0
 23 36  1  1
 23 37  1  0
 23 38  1  0
M  END
>  <Pose ID>  (101)
140

>  <Score>  (101)
-6.632457256317139

>  <smiles>  (101)
COc1nc2ccccc2cc1Nc1c[nH]c2cnc(C)c-2n1

$$$$

     RDKit          3D

 38 41  0  0  0  0  0  0  0  0999 V2000
   28.2960    8.2710  -10.7050 C   0  0  0  0  0  0  0  0  0  0  0  0
   27.7220    7.4420   -9.8570 N   0  0  0  0  0  0  0  0  0  0  0  0
   26.5310    7.8540   -9.2730 C   0  0  0  0  0  0  0  0  0  0  0  0
   25.8980    7.0430   -8.4180 O   0  0  0  0  0  0  0  0  0  0  0  0
   27.7820    9.5160  -11.0540 C   0  0  0  0  0  0  0  0  0  0  0  0
   26.6430    9.9220  -10.5020 C   0  0  0  0  0  0  0  0  0  0  0  0
   25.9910    9.0920   -9.5950 C   0  0  0  0  0  0  0  0  0  0  0  0
   28.4620   10.3170  -11.9590 C   0  0  0  0  0  0  0  0  0  0  0  0
   29.6570    9.8800  -12.5160 C   0  0  0  0  0  0  0  0  0  0  0  0
   30.1710    8.6370  -12.1680 C   0  0  0  0  0  0  0  0  0  0  0  0
   29.5280    7.8350  -11.2430 C   0  0  0  0  0  0  0  0  0  0  0  0
   26.0310    7.5210   -7.0770 C   0  0  1  0  0  0  0  0  0  0  0  0
   24.8090    9.5000   -9.0190 N   0  0  0  0  0  0  0  0  0  0  0  0
   24.4250   10.6600   -8.2770 C   0  0  0  0  0  0  0  0  0  0  0  0
   25.4010   11.6450   -8.3710 N   0  0  0  0  0  0  0  0  0  0  0  0
   25.2290   12.8600   -7.7150 C   0  0  0  0  0  0  0  0  0  0  0  0
   24.0820   13.0880   -6.9640 C   0  0  0  0  0  0  0  0  0  0  0  0
   23.1050   12.1030   -6.8700 N   0  0  0  0  0  0  0  0  0  0  0  0
   23.2770   10.8890   -7.5180 C   0  0  0  0  0  0  0  0  0  0  0  0
   24.1460   14.3690   -6.4080 C   0  0  0  0  0  0  0  0  0  0  0  0
   25.4030   14.8420   -6.7160 N   0  0  0  0  0  0  0  0  0  0  0  0
   26.1140   14.0240   -7.4190 C   0  0  0  0  0  0  0  0  0  0  0  0
   23.0650   15.0830   -5.6340 C   0  0  1  0  0  0  0  0  0  0  0  0
   26.2200   10.9042  -10.7595 H   0  0  0  0  0  0  0  0  0  0  0  0
   28.0543   11.3003  -12.2363 H   0  0  0  0  0  0  0  0  0  0  0  0
   30.1961   10.5176  -13.2322 H   0  0  0  0  0  0  0  0  0  0  0  0
   31.1029    8.2858  -12.6350 H   0  0  0  0  0  0  0  0  0  0  0  0
   29.9672    6.8757  -10.9318 H   0  0  0  0  0  0  0  0  0  0  0  0
   25.8044    6.7065   -6.3732 H   0  0  0  0  0  0  0  0  0  0  0  0
   27.0607    7.8713   -6.9131 H   0  0  0  0  0  0  0  0  0  0  0  0
   25.3302    8.3529   -6.9131 H   0  0  0  0  0  0  0  0  0  0  0  0
   24.0394    8.8281   -9.1503 H   0  0  0  0  0  0  0  0  0  0  0  0
   22.2524   12.2753   -6.3184 H   0  0  0  0  0  0  0  0  0  0  0  0
   22.5083   10.1067   -7.4336 H   0  0  0  0  0  0  0  0  0  0  0  0
   27.1590   14.1583   -7.7350 H   0  0  0  0  0  0  0  0  0  0  0  0
   23.2462   14.9633   -4.5556 H   0  0  0  0  0  0  0  0  0  0  0  0
   23.0754   16.1525   -5.8911 H   0  0  0  0  0  0  0  0  0  0  0  0
   22.0854   14.6536   -5.8911 H   0  0  0  0  0  0  0  0  0  0  0  0
 13  7  1  0
 13 14  1  0
 14 15  1  0
 14 19  2  0
 15 16  2  0
 16 22  1  0
 16 17  1  0
 17 18  1  0
 17 20  2  0
 18 19  1  0
 20 21  1  0
 20 23  1  0
 21 22  2  0
  1 11  1  0
  1  5  1  0
  1  2  2  0
  2  3  1  0
  3  7  2  0
  3  4  1  0
  5  8  1  0
  5  6  2  0
  6  7  1  0
  8  9  2  0
  9 10  1  0
 10 11  2  0
  4 12  1  0
  6 24  1  0
  8 25  1  0
  9 26  1  0
 10 27  1  0
 11 28  1  0
 12 29  1  1
 12 30  1  0
 12 31  1  0
 13 32  1  0
 18 33  1  0
 19 34  1  0
 22 35  1  0
 23 36  1  1
 23 37  1  0
 23 38  1  0
M  END
>  <Pose ID>  (102)
138

>  <Score>  (102)
-6.613183498382568

>  <smiles>  (102)
COc1nc2ccccc2cc1Nc1c[nH]c2c(C)ncc-2n1

$$$$

     RDKit          3D

 40 42  0  0  0  0  0  0  0  0999 V2000
   27.6050    8.4030  -10.2160 C   0  0  0  0  0  0  0  0  0  0  0  0
   27.3630    7.2210   -9.5250 N   0  0  0  0  0  0  0  0  0  0  0  0
   26.4830    7.2110   -8.4500 C   0  0  0  0  0  0  0  0  0  0  0  0
   25.8480    8.3850   -8.0640 N   0  0  0  0  0  0  0  0  0  0  0  0
   28.4360    8.3240  -11.1710 N   0  0  0  0  0  0  0  0  0  0  0  0
   26.0870    9.5660   -8.7540 C   0  0  0  0  0  0  0  0  0  0  0  0
   26.9550    9.5660   -9.8460 C   0  0  0  0  0  0  0  0  0  0  0  0
   28.6910    9.4160  -11.8830 C   0  0  0  0  0  0  0  0  0  0  0  0
   29.9360   10.0300  -11.8480 N   0  0  0  0  0  0  0  0  0  0  0  0
   30.1740   11.1710  -12.6080 C   0  0  0  0  0  0  0  0  0  0  0  0
   29.1600   11.7000  -13.4000 C   0  0  0  0  0  0  0  0  0  0  0  0
   27.9140   11.0860  -13.4340 C   0  0  0  0  0  0  0  0  0  0  0  0
   27.6900    9.9290  -12.6950 C   0  0  0  0  0  0  0  0  0  0  0  0
   29.2500    7.2250  -11.7240 C   0  0  1  0  0  0  0  0  0  0  0  0
   29.3930   12.8300  -14.1490 O   0  0  0  0  0  0  0  0  0  0  0  0
   29.4720   13.9620  -13.2920 C   0  0  1  0  0  0  0  0  0  0  0  0
   28.3070   14.6870  -12.7760 C   0  0  0  0  0  0  0  0  0  0  0  0
   27.9750   14.6490  -11.4270 C   0  0  0  0  0  0  0  0  0  0  0  0
   26.8550   15.3310  -10.9670 C   0  0  0  0  0  0  0  0  0  0  0  0
   26.0650   16.0490  -11.8580 C   0  0  0  0  0  0  0  0  0  0  0  0
   26.3970   16.0870  -13.2070 C   0  0  0  0  0  0  0  0  0  0  0  0
   27.5180   15.4060  -13.6670 N   0  0  0  0  0  0  0  0  0  0  0  0
   25.4100   10.8440   -8.3250 C   0  0  1  0  0  0  0  0  0  0  0  0
   26.2893    6.2752   -7.9053 H   0  0  0  0  0  0  0  0  0  0  0  0
   27.1227   10.4930  -10.4139 H   0  0  0  0  0  0  0  0  0  0  0  0
   31.1621   11.6538  -12.5826 H   0  0  0  0  0  0  0  0  0  0  0  0
   27.1056   11.5144  -14.0447 H   0  0  0  0  0  0  0  0  0  0  0  0
   26.7169    9.4196  -12.7546 H   0  0  0  0  0  0  0  0  0  0  0  0
   29.6837    6.6394  -10.9000 H   0  0  0  0  0  0  0  0  0  0  0  0
   28.6149    6.5735  -12.3422 H   0  0  0  0  0  0  0  0  0  0  0  0
   30.0584    7.6426  -12.3422 H   0  0  0  0  0  0  0  0  0  0  0  0
   30.0293   13.6254  -12.4054 H   0  0  0  0  0  0  0  0  0  0  0  0
   29.8957   14.7113  -13.9769 H   0  0  0  0  0  0  0  0  0  0  0  0
   28.5990   14.0788  -10.7231 H   0  0  0  0  0  0  0  0  0  0  0  0
   26.5936   15.3029   -9.8989 H   0  0  0  0  0  0  0  0  0  0  0  0
   25.1769   16.5871  -11.4950 H   0  0  0  0  0  0  0  0  0  0  0  0
   25.7723   16.6563  -13.9110 H   0  0  0  0  0  0  0  0  0  0  0  0
   25.3835   10.8940   -7.2265 H   0  0  0  0  0  0  0  0  0  0  0  0
   25.9701   11.7054   -8.7179 H   0  0  0  0  0  0  0  0  0  0  0  0
   24.3828   10.8645   -8.7179 H   0  0  0  0  0  0  0  0  0  0  0  0
  1  5  1  0
  1  7  1  0
  1  2  2  0
  2  3  1  0
  3  4  2  0
  4  6  1  0
  5  8  1  0
  5 14  1  0
  6  7  2  0
  6 23  1  0
  8 13  1  0
  8  9  2  0
  9 10  1  0
 10 11  2  0
 11 15  1  0
 11 12  1  0
 12 13  2  0
 15 16  1  0
 16 17  1  0
 17 22  1  0
 17 18  2  0
 18 19  1  0
 19 20  2  0
 20 21  1  0
 21 22  2  0
  3 24  1  0
  7 25  1  0
 10 26  1  0
 12 27  1  0
 13 28  1  0
 14 29  1  1
 14 30  1  0
 14 31  1  0
 16 32  1  1
 16 33  1  0
 18 34  1  0
 19 35  1  0
 20 36  1  0
 21 37  1  0
 23 38  1  1
 23 39  1  0
 23 40  1  0
M  END
>  <Pose ID>  (103)
159

>  <Score>  (103)
-6.610981464385986

>  <smiles>  (103)
Cc1cc(N(C)c2ccc(OCc3ccccn3)cn2)ncn1

$$$$

     RDKit          3D

 35 37  0  0  0  0  0  0  0  0999 V2000
   28.3190    8.1410  -10.7320 C   0  0  0  0  0  0  0  0  0  0  0  0
   27.6340    7.3920   -9.8920 N   0  0  0  0  0  0  0  0  0  0  0  0
   26.4840    7.9470   -9.3420 C   0  0  0  0  0  0  0  0  0  0  0  0
   25.7430    7.2260   -8.4950 O   0  0  0  0  0  0  0  0  0  0  0  0
   27.9610    9.4310  -11.1050 C   0  0  0  0  0  0  0  0  0  0  0  0
   26.8650    9.9750  -10.5820 C   0  0  0  0  0  0  0  0  0  0  0  0
   26.1000    9.2370   -9.6860 C   0  0  0  0  0  0  0  0  0  0  0  0
   28.7510   10.1390  -12.0000 C   0  0  0  0  0  0  0  0  0  0  0  0
   29.8980    9.5600  -12.5240 C   0  0  0  0  0  0  0  0  0  0  0  0
   30.2570    8.2700  -12.1530 C   0  0  0  0  0  0  0  0  0  0  0  0
   29.5050    7.5590  -11.2380 C   0  0  0  0  0  0  0  0  0  0  0  0
   25.8990    7.6980   -7.1560 C   0  0  1  0  0  0  0  0  0  0  0  0
   24.9620    9.7840   -9.1400 N   0  0  0  0  0  0  0  0  0  0  0  0
   24.7540   10.9760   -8.4440 C   0  0  0  0  0  0  0  0  0  0  0  0
   25.8260   11.8580   -8.5150 N   0  0  0  0  0  0  0  0  0  0  0  0
   25.7600   13.0860   -7.8680 C   0  0  0  0  0  0  0  0  0  0  0  0
   24.6210   13.4330   -7.1510 C   0  0  0  0  0  0  0  0  0  0  0  0
   23.5490   12.5530   -7.0790 C   0  0  0  0  0  0  0  0  0  0  0  0
   23.6060   11.3360   -7.7520 C   0  0  0  0  0  0  0  0  0  0  0  0
   26.9240   14.0410   -7.9440 C   0  0  1  0  0  0  0  0  0  0  0  0
   26.5674   10.9980  -10.8558 H   0  0  0  0  0  0  0  0  0  0  0  0
   28.4675   11.1603  -12.2943 H   0  0  0  0  0  0  0  0  0  0  0  0
   30.5231   10.1223  -13.2332 H   0  0  0  0  0  0  0  0  0  0  0  0
   31.1527    7.8084  -12.5941 H   0  0  0  0  0  0  0  0  0  0  0  0
   29.8226    6.5586  -10.9088 H   0  0  0  0  0  0  0  0  0  0  0  0
   25.6339    6.8960   -6.4513 H   0  0  0  0  0  0  0  0  0  0  0  0
   26.9444    7.9989   -6.9927 H   0  0  0  0  0  0  0  0  0  0  0  0
   25.2388    8.5626   -6.9927 H   0  0  0  0  0  0  0  0  0  0  0  0
   24.1139    9.2135   -9.2672 H   0  0  0  0  0  0  0  0  0  0  0  0
   24.5686   14.4057   -6.6400 H   0  0  0  0  0  0  0  0  0  0  0  0
   22.6572   12.8171   -6.4916 H   0  0  0  0  0  0  0  0  0  0  0  0
   22.7397   10.6583   -7.7354 H   0  0  0  0  0  0  0  0  0  0  0  0
   27.2475   14.3064   -6.9267 H   0  0  0  0  0  0  0  0  0  0  0  0
   27.7566   13.5623   -8.4804 H   0  0  0  0  0  0  0  0  0  0  0  0
   26.6172   14.9511   -8.4804 H   0  0  0  0  0  0  0  0  0  0  0  0
  1 11  1  0
  1  5  1  0
  1  2  2  0
  2  3  1  0
  3  7  2  0
  3  4  1  0
  5  8  1  0
  5  6  2  0
  6  7  1  0
  7 13  1  0
  8  9  2  0
  9 10  1  0
 10 11  2  0
 13 14  1  0
 14 15  2  0
 14 19  1  0
 15 16  1  0
 16 20  1  0
 16 17  2  0
 17 18  1  0
 18 19  2  0
  4 12  1  0
  6 21  1  0
  8 22  1  0
  9 23  1  0
 10 24  1  0
 11 25  1  0
 12 26  1  1
 12 27  1  0
 12 28  1  0
 13 29  1  0
 17 30  1  0
 18 31  1  0
 19 32  1  0
 20 33  1  1
 20 34  1  0
 20 35  1  0
M  END
>  <Pose ID>  (104)
146

>  <Score>  (104)
-6.580846309661865

>  <smiles>  (104)
COc1nc2ccccc2cc1Nc1cccc(C)n1

$$$$

     RDKit          3D

 25 28  0  0  0  0  0  0  0  0999 V2000
   27.6620    7.9780  -10.1000 C   0  0  0  0  0  0  0  0  0  0  0  0
   27.3070    7.1000   -9.1070 N   0  0  0  0  0  0  0  0  0  0  0  0
   26.4720    7.4870   -8.1100 C   0  0  0  0  0  0  0  0  0  0  0  0
   28.5090    7.9080  -11.1980 C   0  0  0  0  0  0  0  0  0  0  0  0
   28.6330    8.9980  -12.0510 C   0  0  0  0  0  0  0  0  0  0  0  0
   27.9090   10.1580  -11.8060 C   0  0  0  0  0  0  0  0  0  0  0  0
   27.0590   10.2270  -10.7070 C   0  0  0  0  0  0  0  0  0  0  0  0
   26.9360    9.1390   -9.8550 C   0  0  0  0  0  0  0  0  0  0  0  0
   26.1870    8.8470   -8.4330 O   0  0  0  0  0  0  0  0  0  0  0  0
   28.0350   11.2620  -12.6690 C   0  0  0  0  0  0  0  0  0  0  0  0
   27.0460   11.9870  -13.1600 N   0  0  0  0  0  0  0  0  0  0  0  0
   27.5360   12.9900  -13.8350 N   0  0  0  0  0  0  0  0  0  0  0  0
   28.8060   12.9790  -13.8060 C   0  0  0  0  0  0  0  0  0  0  0  0
   29.1650   11.8550  -13.0730 N   0  0  0  0  0  0  0  0  0  0  0  0
   30.5080   11.5430  -12.8920 C   0  0  0  0  0  0  0  0  0  0  0  0
   31.4910   12.3560  -13.4450 C   0  0  0  0  0  0  0  0  0  0  0  0
   31.1300   13.4790  -14.1800 N   0  0  0  0  0  0  0  0  0  0  0  0
   29.7890   13.7910  -14.3600 C   0  0  0  0  0  0  0  0  0  0  0  0
   26.1039    6.8954   -7.2588 H   0  0  0  0  0  0  0  0  0  0  0  0
   29.0820    6.9895  -11.3927 H   0  0  0  0  0  0  0  0  0  0  0  0
   29.3046    8.9423  -12.9204 H   0  0  0  0  0  0  0  0  0  0  0  0
   26.4841   11.1446  -10.5134 H   0  0  0  0  0  0  0  0  0  0  0  0
   30.7926   10.6531  -12.3114 H   0  0  0  0  0  0  0  0  0  0  0  0
   32.5536   12.1106  -13.3009 H   0  0  0  0  0  0  0  0  0  0  0  0
   29.5045   14.6807  -14.9410 H   0  0  0  0  0  0  0  0  0  0  0  0
  1  4  2  0
  1  8  1  0
  1  2  1  0
  2  3  2  0
  3  9  1  0
  4  5  1  0
  5  6  2  0
  6 10  1  0
  6  7  1  0
  7  8  2  0
  8  9  1  0
 10 11  2  0
 10 14  1  0
 11 12  1  0
 12 13  2  0
 13 18  1  0
 13 14  1  0
 14 15  1  0
 15 16  2  0
 16 17  1  0
 17 18  2  0
  3 19  1  0
  4 20  1  0
  5 21  1  0
  7 22  1  0
 15 23  1  0
 16 24  1  0
 18 25  1  0
M  END
>  <Pose ID>  (105)
119

>  <Score>  (105)
-6.580040454864502

>  <smiles>  (105)
c1cn2c(-c3ccc4ncoc4c3)nnc2cn1

$$$$

     RDKit          3D

 32 34  0  0  0  0  0  0  0  0999 V2000
   28.3140    8.1410  -10.7320 C   0  0  0  0  0  0  0  0  0  0  0  0
   27.6540    7.3750   -9.8870 N   0  0  0  0  0  0  0  0  0  0  0  0
   26.5010    7.9050   -9.3200 C   0  0  0  0  0  0  0  0  0  0  0  0
   25.7840    7.1650   -8.4680 O   0  0  0  0  0  0  0  0  0  0  0  0
   27.9270    9.4260  -11.0930 C   0  0  0  0  0  0  0  0  0  0  0  0
   26.8280    9.9460  -10.5540 C   0  0  0  0  0  0  0  0  0  0  0  0
   26.0880    9.1890   -9.6520 C   0  0  0  0  0  0  0  0  0  0  0  0
   28.6930   10.1540  -11.9940 C   0  0  0  0  0  0  0  0  0  0  0  0
   29.8440    9.5990  -12.5350 C   0  0  0  0  0  0  0  0  0  0  0  0
   30.2320    8.3140  -12.1760 C   0  0  0  0  0  0  0  0  0  0  0  0
   29.5050    7.5840  -11.2550 C   0  0  0  0  0  0  0  0  0  0  0  0
   25.9480    7.6330   -7.1280 C   0  0  1  0  0  0  0  0  0  0  0  0
   24.9470    9.7120   -9.0890 N   0  0  0  0  0  0  0  0  0  0  0  0
   24.7250   10.8960   -8.3840 C   0  0  0  0  0  0  0  0  0  0  0  0
   25.7790   11.7980   -8.4630 N   0  0  0  0  0  0  0  0  0  0  0  0
   25.6980   13.0210   -7.8090 C   0  0  0  0  0  0  0  0  0  0  0  0
   24.5620   13.3430   -7.0760 C   0  0  0  0  0  0  0  0  0  0  0  0
   23.5080   12.4420   -6.9960 C   0  0  0  0  0  0  0  0  0  0  0  0
   23.5790   11.2300   -7.6760 C   0  0  0  0  0  0  0  0  0  0  0  0
   26.5076   10.9644  -10.8189 H   0  0  0  0  0  0  0  0  0  0  0  0
   28.3871   11.1714  -12.2790 H   0  0  0  0  0  0  0  0  0  0  0  0
   30.4497   10.1768  -13.2486 H   0  0  0  0  0  0  0  0  0  0  0  0
   31.1304    7.8716  -12.6312 H   0  0  0  0  0  0  0  0  0  0  0  0
   29.8458    6.5885  -10.9344 H   0  0  0  0  0  0  0  0  0  0  0  0
   25.6684    6.8352   -6.4242 H   0  0  0  0  0  0  0  0  0  0  0  0
   26.9985    7.9150   -6.9641 H   0  0  0  0  0  0  0  0  0  0  0  0
   25.3033    8.5091   -6.9641 H   0  0  0  0  0  0  0  0  0  0  0  0
   24.1082    9.1263   -9.2089 H   0  0  0  0  0  0  0  0  0  0  0  0
   26.5329   13.7344   -7.8713 H   0  0  0  0  0  0  0  0  0  0  0  0
   24.4976   14.3118   -6.5590 H   0  0  0  0  0  0  0  0  0  0  0  0
   22.6188   12.6860   -6.3962 H   0  0  0  0  0  0  0  0  0  0  0  0
   22.7259   10.5359   -7.6524 H   0  0  0  0  0  0  0  0  0  0  0  0
  1 11  1  0
  1  5  1  0
  1  2  2  0
  2  3  1  0
  3  7  2  0
  3  4  1  0
  5  8  1  0
  5  6  2  0
  6  7  1  0
  7 13  1  0
  8  9  2  0
  9 10  1  0
 10 11  2  0
 13 14  1  0
 14 15  2  0
 14 19  1  0
 15 16  1  0
 16 17  2  0
 17 18  1  0
 18 19  2  0
  4 12  1  0
  6 20  1  0
  8 21  1  0
  9 22  1  0
 10 23  1  0
 11 24  1  0
 12 25  1  1
 12 26  1  0
 12 27  1  0
 13 28  1  0
 16 29  1  0
 17 30  1  0
 18 31  1  0
 19 32  1  0
M  END
>  <Pose ID>  (106)
145

>  <Score>  (106)
-6.575026988983154

>  <smiles>  (106)
COc1nc2ccccc2cc1Nc1ccccn1

$$$$

     RDKit          3D

 40 42  0  0  0  0  0  0  0  0999 V2000
   27.6370    8.3750  -10.1840 C   0  0  0  0  0  0  0  0  0  0  0  0
   27.3910    7.1970   -9.4870 N   0  0  0  0  0  0  0  0  0  0  0  0
   26.5620    7.2080   -8.3720 C   0  0  0  0  0  0  0  0  0  0  0  0
   25.9820    8.3980   -7.9520 N   0  0  0  0  0  0  0  0  0  0  0  0
   28.4200    8.2760  -11.1760 N   0  0  0  0  0  0  0  0  0  0  0  0
   26.2250    9.5760   -8.6480 C   0  0  0  0  0  0  0  0  0  0  0  0
   27.0400    9.5550   -9.7790 C   0  0  0  0  0  0  0  0  0  0  0  0
   28.6750    9.3640  -11.8950 C   0  0  0  0  0  0  0  0  0  0  0  0
   29.9380    9.9390  -11.9160 N   0  0  0  0  0  0  0  0  0  0  0  0
   30.1750   11.0760  -12.6830 C   0  0  0  0  0  0  0  0  0  0  0  0
   29.1420   11.6400  -13.4240 C   0  0  0  0  0  0  0  0  0  0  0  0
   27.8780   11.0650  -13.4020 C   0  0  0  0  0  0  0  0  0  0  0  0
   27.6530    9.9110  -12.6580 C   0  0  0  0  0  0  0  0  0  0  0  0
   29.1740    7.1560  -11.7710 C   0  0  1  0  0  0  0  0  0  0  0  0
   29.3740   12.7670  -14.1780 O   0  0  0  0  0  0  0  0  0  0  0  0
   29.5280   13.8910  -13.3220 C   0  0  1  0  0  0  0  0  0  0  0  0
   28.4110   14.6490  -12.7490 C   0  0  0  0  0  0  0  0  0  0  0  0
   28.1410   14.6140  -11.3860 C   0  0  0  0  0  0  0  0  0  0  0  0
   27.0650   15.3270  -10.8720 C   0  0  0  0  0  0  0  0  0  0  0  0
   26.2570   16.0730  -11.7210 C   0  0  0  0  0  0  0  0  0  0  0  0
   26.5260   16.1080  -13.0850 C   0  0  0  0  0  0  0  0  0  0  0  0
   27.6030   15.3960  -13.5990 N   0  0  0  0  0  0  0  0  0  0  0  0
   29.0160   13.8010  -10.4650 C   0  0  1  0  0  0  0  0  0  0  0  0
   26.3653    6.2755   -7.8227 H   0  0  0  0  0  0  0  0  0  0  0  0
   25.7762   10.5210   -8.3080 H   0  0  0  0  0  0  0  0  0  0  0  0
   27.2087   10.4795  -10.3508 H   0  0  0  0  0  0  0  0  0  0  0  0
   31.1777   11.5278  -12.7031 H   0  0  0  0  0  0  0  0  0  0  0  0
   27.0555   11.5215  -13.9722 H   0  0  0  0  0  0  0  0  0  0  0  0
   26.6632    9.4314  -12.6746 H   0  0  0  0  0  0  0  0  0  0  0  0
   29.5949    6.5307  -10.9698 H   0  0  0  0  0  0  0  0  0  0  0  0
   28.4996    6.5496  -12.3934 H   0  0  0  0  0  0  0  0  0  0  0  0
   29.9896    7.5527  -12.3934 H   0  0  0  0  0  0  0  0  0  0  0  0
   30.1156   13.5329  -12.4638 H   0  0  0  0  0  0  0  0  0  0  0  0
   29.9422   14.6304  -14.0232 H   0  0  0  0  0  0  0  0  0  0  0  0
   26.8529   15.3009   -9.7930 H   0  0  0  0  0  0  0  0  0  0  0  0
   25.4042   16.6362  -11.3142 H   0  0  0  0  0  0  0  0  0  0  0  0
   25.8864   16.6992  -13.7569 H   0  0  0  0  0  0  0  0  0  0  0  0
   28.7648   14.0344   -9.4198 H   0  0  0  0  0  0  0  0  0  0  0  0
   28.8493   12.7299  -10.6517 H   0  0  0  0  0  0  0  0  0  0  0  0
   30.0720   14.0458  -10.6517 H   0  0  0  0  0  0  0  0  0  0  0  0
  1  5  1  0
  1  7  1  0
  1  2  2  0
  2  3  1  0
  3  4  2  0
  4  6  1  0
  5  8  1  0
  5 14  1  0
  6  7  2  0
  8 13  1  0
  8  9  2  0
  9 10  1  0
 10 11  2  0
 11 15  1  0
 11 12  1  0
 12 13  2  0
 15 16  1  0
 16 17  1  0
 17 22  1  0
 17 18  2  0
 18 19  1  0
 18 23  1  0
 19 20  2  0
 20 21  1  0
 21 22  2  0
  3 24  1  0
  6 25  1  0
  7 26  1  0
 10 27  1  0
 12 28  1  0
 13 29  1  0
 14 30  1  1
 14 31  1  0
 14 32  1  0
 16 33  1  1
 16 34  1  0
 19 35  1  0
 20 36  1  0
 21 37  1  0
 23 38  1  1
 23 39  1  0
 23 40  1  0
M  END
>  <Pose ID>  (107)
162

>  <Score>  (107)
-6.551139831542969

>  <smiles>  (107)
Cc1cccnc1COc1ccc(N(C)c2ccncn2)nc1

$$$$

     RDKit          3D

 46 48  0  0  0  0  0  0  0  0999 V2000
   25.8210   13.9130   -7.7090 C   0  0  0  0  0  0  0  0  0  0  0  0
   25.4910   12.7120   -8.3160 N   0  0  0  0  0  0  0  0  0  0  0  0
   26.4010   12.0910   -9.1610 C   0  0  0  0  0  0  0  0  0  0  0  0
   27.6390   12.6770   -9.4020 N   0  0  0  0  0  0  0  0  0  0  0  0
   27.0560   14.5010   -7.9450 C   0  0  0  0  0  0  0  0  0  0  0  0
   27.9650   13.8820   -8.7950 C   0  0  0  0  0  0  0  0  0  0  0  0
   25.8520   10.9230   -9.6360 N   0  0  0  0  0  0  0  0  0  0  0  0
   25.9800    9.6670   -8.9450 C   0  0  2  0  0  0  0  0  0  0  0  0
   27.3850    9.6210   -8.2590 C   0  0  1  0  0  0  0  0  0  0  0  0
   27.7200    8.2800   -7.7210 C   0  0  1  0  0  0  0  0  0  0  0  0
   27.5750    7.2690   -8.7420 O   0  0  0  0  0  0  0  0  0  0  0  0
   26.1890    7.1730   -9.1120 C   0  0  1  0  0  0  0  0  0  0  0  0
   25.7880    8.4520   -9.8100 C   0  0  1  0  0  0  0  0  0  0  0  0
   27.6070   15.6650   -7.4650 N   0  0  0  0  0  0  0  0  0  0  0  0
   27.4060   16.9560   -7.8890 C   0  0  0  0  0  0  0  0  0  0  0  0
   28.4520   17.6920   -8.4350 C   0  0  0  0  0  0  0  0  0  0  0  0
   28.2140   18.9610   -8.9480 C   0  0  0  0  0  0  0  0  0  0  0  0
   26.9320   19.4950   -8.9160 N   0  0  0  0  0  0  0  0  0  0  0  0
   25.8870   18.7590   -8.3700 C   0  0  0  0  0  0  0  0  0  0  0  0
   26.1240   17.4900   -7.8570 C   0  0  0  0  0  0  0  0  0  0  0  0
   24.8320   14.5880   -6.7900 C   0  0  1  0  0  0  0  0  0  0  0  0
   25.5880   15.0600   -5.5870 C   0  0  1  0  0  0  0  0  0  0  0  0
   24.9030    9.6330   -7.8230 C   0  0  1  0  0  0  0  0  0  0  0  0
   28.9432   14.3472   -8.9867 H   0  0  0  0  0  0  0  0  0  0  0  0
   25.3279   10.9481  -10.5223 H   0  0  0  0  0  0  0  0  0  0  0  0
   28.1472    9.9023   -9.0005 H   0  0  0  0  0  0  0  0  0  0  0  0
   27.3617   10.3210   -7.4108 H   0  0  0  0  0  0  0  0  0  0  0  0
   28.7599    8.2844   -7.3624 H   0  0  0  0  0  0  0  0  0  0  0  0
   27.0320    8.0488   -6.8945 H   0  0  0  0  0  0  0  0  0  0  0  0
   26.0446    6.3193   -9.7905 H   0  0  0  0  0  0  0  0  0  0  0  0
   25.5696    7.0234   -8.2154 H   0  0  0  0  0  0  0  0  0  0  0  0
   24.7264    8.3828  -10.0898 H   0  0  0  0  0  0  0  0  0  0  0  0
   26.4335    8.5662  -10.6933 H   0  0  0  0  0  0  0  0  0  0  0  0
   28.2618   15.5538   -6.6777 H   0  0  0  0  0  0  0  0  0  0  0  0
   29.4673   17.2696   -8.4607 H   0  0  0  0  0  0  0  0  0  0  0  0
   29.0413   19.5433   -9.3798 H   0  0  0  0  0  0  0  0  0  0  0  0
   24.8718   19.1816   -8.3441 H   0  0  0  0  0  0  0  0  0  0  0  0
   25.2964   16.9079   -7.4254 H   0  0  0  0  0  0  0  0  0  0  0  0
   24.3671   15.4438   -7.3014 H   0  0  0  0  0  0  0  0  0  0  0  0
   24.0343   13.8893   -6.4977 H   0  0  0  0  0  0  0  0  0  0  0  0
   25.0663   14.7343   -4.6750 H   0  0  0  0  0  0  0  0  0  0  0  0
   26.6022   14.6344   -5.6011 H   0  0  0  0  0  0  0  0  0  0  0  0
   25.6509   16.1581   -5.6011 H   0  0  0  0  0  0  0  0  0  0  0  0
   25.3968    9.6486   -6.8402 H   0  0  0  0  0  0  0  0  0  0  0  0
   24.2470   10.5109   -7.9177 H   0  0  0  0  0  0  0  0  0  0  0  0
   24.3037    8.7155   -7.9177 H   0  0  0  0  0  0  0  0  0  0  0  0
  1  2  2  0
  1  5  1  0
  1 21  1  0
  2  3  1  0
  3  7  1  0
  3  4  2  0
  4  6  1  0
  5  6  2  0
  5 14  1  0
  8  7  1  6
  8 13  1  0
  8  9  1  0
  8 23  1  0
  9 10  1  0
 10 11  1  0
 11 12  1  0
 12 13  1  0
 14 15  1  0
 15 16  2  0
 15 20  1  0
 16 17  1  0
 17 18  2  0
 18 19  1  0
 19 20  2  0
 21 22  1  0
  6 24  1  0
  7 25  1  0
  9 26  1  6
  9 27  1  0
 10 28  1  1
 10 29  1  0
 12 30  1  6
 12 31  1  0
 13 32  1  6
 13 33  1  0
 14 34  1  0
 16 35  1  0
 17 36  1  0
 19 37  1  0
 20 38  1  0
 21 39  1  6
 21 40  1  0
 22 41  1  1
 22 42  1  0
 22 43  1  0
 23 44  1  1
 23 45  1  0
 23 46  1  0
M  END
>  <Pose ID>  (108)
247

>  <Score>  (108)
-6.539363384246826

>  <smiles>  (108)
CCc1nc(NC2(C)CCOCC2)ncc1Nc1ccncc1

$$$$

     RDKit          3D

 37 39  0  0  0  0  0  0  0  0999 V2000
   27.6290    8.3790  -10.1920 C   0  0  0  0  0  0  0  0  0  0  0  0
   27.3920    7.1990   -9.4970 N   0  0  0  0  0  0  0  0  0  0  0  0
   26.5450    7.1980   -8.3950 C   0  0  0  0  0  0  0  0  0  0  0  0
   25.9380    8.3790   -7.9870 N   0  0  0  0  0  0  0  0  0  0  0  0
   28.4290    8.2910  -11.1720 N   0  0  0  0  0  0  0  0  0  0  0  0
   26.1720    9.5590   -8.6820 C   0  0  0  0  0  0  0  0  0  0  0  0
   27.0060    9.5500   -9.8000 C   0  0  0  0  0  0  0  0  0  0  0  0
   28.6770    9.3820  -11.8890 C   0  0  0  0  0  0  0  0  0  0  0  0
   29.9310    9.9780  -11.8910 N   0  0  0  0  0  0  0  0  0  0  0  0
   30.1610   11.1180  -12.6560 C   0  0  0  0  0  0  0  0  0  0  0  0
   29.1310   11.6630  -13.4150 C   0  0  0  0  0  0  0  0  0  0  0  0
   27.8760   11.0660  -13.4120 C   0  0  0  0  0  0  0  0  0  0  0  0
   27.6590    9.9100  -12.6690 C   0  0  0  0  0  0  0  0  0  0  0  0
   29.2110    7.1830  -11.7520 C   0  0  1  0  0  0  0  0  0  0  0  0
   29.3560   12.7920  -14.1680 O   0  0  0  0  0  0  0  0  0  0  0  0
   29.4770   13.9200  -13.3120 C   0  0  1  0  0  0  0  0  0  0  0  0
   28.3380   14.6600  -12.7590 C   0  0  0  0  0  0  0  0  0  0  0  0
   28.0470   14.6230  -11.4000 C   0  0  0  0  0  0  0  0  0  0  0  0
   26.9510   15.3190  -10.9050 C   0  0  0  0  0  0  0  0  0  0  0  0
   26.1440   16.0500  -11.7690 C   0  0  0  0  0  0  0  0  0  0  0  0
   26.4350   16.0870  -13.1280 C   0  0  0  0  0  0  0  0  0  0  0  0
   27.5320   15.3920  -13.6230 N   0  0  0  0  0  0  0  0  0  0  0  0
   26.3556    6.2634   -7.8467 H   0  0  0  0  0  0  0  0  0  0  0  0
   25.7013   10.4968   -8.3518 H   0  0  0  0  0  0  0  0  0  0  0  0
   27.1686   10.4760  -10.3710 H   0  0  0  0  0  0  0  0  0  0  0  0
   31.1560   11.5871  -12.6602 H   0  0  0  0  0  0  0  0  0  0  0  0
   27.0551   11.5070  -13.9965 H   0  0  0  0  0  0  0  0  0  0  0  0
   26.6778    9.4137  -12.7002 H   0  0  0  0  0  0  0  0  0  0  0  0
   29.6405    6.5744  -10.9426 H   0  0  0  0  0  0  0  0  0  0  0  0
   28.5540    6.5563  -12.3730 H   0  0  0  0  0  0  0  0  0  0  0  0
   30.0216    7.5920  -12.3730 H   0  0  0  0  0  0  0  0  0  0  0  0
   30.0564   13.5735  -12.4435 H   0  0  0  0  0  0  0  0  0  0  0  0
   29.8902   14.6650  -14.0079 H   0  0  0  0  0  0  0  0  0  0  0  0
   28.6844   14.0427  -10.7166 H   0  0  0  0  0  0  0  0  0  0  0  0
   26.7220   15.2915   -9.8295 H   0  0  0  0  0  0  0  0  0  0  0  0
   25.2751   16.5993  -11.3775 H   0  0  0  0  0  0  0  0  0  0  0  0
   25.7969   16.6664  -13.8115 H   0  0  0  0  0  0  0  0  0  0  0  0
  1  5  1  0
  1  7  1  0
  1  2  2  0
  2  3  1  0
  3  4  2  0
  4  6  1  0
  5  8  1  0
  5 14  1  0
  6  7  2  0
  8 13  1  0
  8  9  2  0
  9 10  1  0
 10 11  2  0
 11 15  1  0
 11 12  1  0
 12 13  2  0
 15 16  1  0
 16 17  1  0
 17 22  1  0
 17 18  2  0
 18 19  1  0
 19 20  2  0
 20 21  1  0
 21 22  2  0
  3 23  1  0
  6 24  1  0
  7 25  1  0
 10 26  1  0
 12 27  1  0
 13 28  1  0
 14 29  1  1
 14 30  1  0
 14 31  1  0
 16 32  1  1
 16 33  1  0
 18 34  1  0
 19 35  1  0
 20 36  1  0
 21 37  1  0
M  END
>  <Pose ID>  (109)
158

>  <Score>  (109)
-6.501803874969482

>  <smiles>  (109)
CN(c1ccncn1)c1ccc(OCc2ccccn2)cn1

$$$$

     RDKit          3D

 38 41  0  0  0  0  0  0  0  0999 V2000
   28.0430    7.4600  -10.7850 C   0  0  0  0  0  0  0  0  0  0  0  0
   27.4160    7.2440   -9.5650 N   0  0  0  0  0  0  0  0  0  0  0  0
   27.0630    8.3210   -8.7640 C   0  0  0  0  0  0  0  0  0  0  0  0
   27.3390    9.6170   -9.1850 N   0  0  0  0  0  0  0  0  0  0  0  0
   27.9670    9.8330  -10.4060 C   0  0  0  0  0  0  0  0  0  0  0  0
   28.3200    8.7950  -11.2030 C   0  0  0  0  0  0  0  0  0  0  0  0
   28.3300   10.9790  -11.0140 N   0  0  0  0  0  0  0  0  0  0  0  0
   28.8780   10.6620  -12.1170 N   0  0  0  0  0  0  0  0  0  0  0  0
   28.8990    9.3780  -12.2790 C   0  0  0  0  0  0  0  0  0  0  0  0
   27.1700   10.5780   -8.2380 C   0  0  0  0  0  0  0  0  0  0  0  0
   27.5280   10.4320   -7.0150 C   0  0  0  0  0  0  0  0  0  0  0  0
   26.6170   11.8380   -8.4870 C   0  0  0  0  0  0  0  0  0  0  0  0
   26.6110   12.4780   -7.2140 C   0  0  0  0  0  0  0  0  0  0  0  0
   27.1720   11.6170   -6.3740 O   0  0  0  0  0  0  0  0  0  0  0  0
   26.3770    8.0880   -7.4400 C   0  0  1  0  0  0  0  0  0  0  0  0
   26.1290   13.7310   -6.9170 N   0  0  0  0  0  0  0  0  0  0  0  0
   25.5430   14.4600   -7.9490 C   0  0  0  0  0  0  0  0  0  0  0  0
   24.3250   15.0750   -7.6930 C   0  0  0  0  0  0  0  0  0  0  0  0
   23.6980   15.8160   -8.6880 C   0  0  0  0  0  0  0  0  0  0  0  0
   24.2920   15.9430   -9.9390 C   0  0  0  0  0  0  0  0  0  0  0  0
   25.5110   15.3250  -10.1940 C   0  0  0  0  0  0  0  0  0  0  0  0
   26.1370   14.5840   -9.1990 C   0  0  0  0  0  0  0  0  0  0  0  0
   25.3260    7.0470   -7.6590 C   0  0  1  0  0  0  0  0  0  0  0  0
   28.3235    6.6091  -11.4232 H   0  0  0  0  0  0  0  0  0  0  0  0
   29.3179    8.8482  -13.1472 H   0  0  0  0  0  0  0  0  0  0  0  0
   28.0148    9.5539   -6.5656 H   0  0  0  0  0  0  0  0  0  0  0  0
   26.2662   12.2431   -9.4476 H   0  0  0  0  0  0  0  0  0  0  0  0
   27.1061    7.7356   -6.6955 H   0  0  0  0  0  0  0  0  0  0  0  0
   25.9289    9.0200   -7.0650 H   0  0  0  0  0  0  0  0  0  0  0  0
   26.1988   14.1170   -5.9646 H   0  0  0  0  0  0  0  0  0  0  0  0
   23.8561   14.9759   -6.7029 H   0  0  0  0  0  0  0  0  0  0  0  0
   22.7321   16.3019   -8.4859 H   0  0  0  0  0  0  0  0  0  0  0  0
   23.7979   16.5318  -10.7259 H   0  0  0  0  0  0  0  0  0  0  0  0
   25.9803   15.4227  -11.1841 H   0  0  0  0  0  0  0  0  0  0  0  0
   27.1020   14.0960   -9.4008 H   0  0  0  0  0  0  0  0  0  0  0  0
   24.9604    6.6849   -6.6868 H   0  0  0  0  0  0  0  0  0  0  0  0
   24.4902    7.4833   -8.2257 H   0  0  0  0  0  0  0  0  0  0  0  0
   25.7543    6.2071   -8.2257 H   0  0  0  0  0  0  0  0  0  0  0  0
 10  4  1  0
 10 12  1  0
 10 11  2  0
 11 14  1  0
 12 13  2  0
 13 16  1  0
 13 14  1  0
  1  6  2  0
  1  2  1  0
  2  3  2  0
  3  4  1  0
  3 15  1  0
  4  5  1  0
  5  6  1  0
  5  7  2  0
  6  9  1  0
  7  8  1  0
  8  9  2  0
 15 23  1  0
 16 17  1  0
 17 22  1  0
 17 18  2  0
 18 19  1  0
 19 20  2  0
 20 21  1  0
 21 22  2  0
  1 24  1  0
  9 25  1  0
 11 26  1  0
 12 27  1  0
 15 28  1  1
 15 29  1  0
 16 30  1  0
 18 31  1  0
 19 32  1  0
 20 33  1  0
 21 34  1  0
 22 35  1  0
 23 36  1  1
 23 37  1  0
 23 38  1  0
M  END
>  <Pose ID>  (110)
262

>  <Score>  (110)
-6.501287937164307

>  <smiles>  (110)
CCc1ncc2cnnc-2n1-c1coc(Nc2ccccc2)c1

$$$$

     RDKit          3D

 40 42  0  0  0  0  0  0  0  0999 V2000
   27.6280    8.3830  -10.1920 C   0  0  0  0  0  0  0  0  0  0  0  0
   27.3910    7.2040   -9.4950 N   0  0  0  0  0  0  0  0  0  0  0  0
   26.5410    7.2050   -8.3950 C   0  0  0  0  0  0  0  0  0  0  0  0
   25.9330    8.3860   -7.9910 N   0  0  0  0  0  0  0  0  0  0  0  0
   28.4300    8.2930  -11.1700 N   0  0  0  0  0  0  0  0  0  0  0  0
   26.1680    9.5650   -8.6880 C   0  0  0  0  0  0  0  0  0  0  0  0
   27.0040    9.5540   -9.8040 C   0  0  0  0  0  0  0  0  0  0  0  0
   28.6790    9.3830  -11.8890 C   0  0  0  0  0  0  0  0  0  0  0  0
   29.9330    9.9790  -11.8900 N   0  0  0  0  0  0  0  0  0  0  0  0
   30.1640   11.1180  -12.6570 C   0  0  0  0  0  0  0  0  0  0  0  0
   29.1350   11.6610  -13.4190 C   0  0  0  0  0  0  0  0  0  0  0  0
   27.8800   11.0630  -13.4170 C   0  0  0  0  0  0  0  0  0  0  0  0
   27.6620    9.9080  -12.6720 C   0  0  0  0  0  0  0  0  0  0  0  0
   29.2140    7.1840  -11.7470 C   0  0  1  0  0  0  0  0  0  0  0  0
   29.3610   12.7880  -14.1740 O   0  0  0  0  0  0  0  0  0  0  0  0
   29.4790   13.9180  -13.3200 C   0  0  1  0  0  0  0  0  0  0  0  0
   28.3390   14.6590  -12.7710 C   0  0  0  0  0  0  0  0  0  0  0  0
   28.0450   14.6240  -11.4120 C   0  0  0  0  0  0  0  0  0  0  0  0
   26.9470   15.3210  -10.9210 C   0  0  0  0  0  0  0  0  0  0  0  0
   26.1420   16.0490  -11.7880 C   0  0  0  0  0  0  0  0  0  0  0  0
   26.4350   16.0840  -13.1470 C   0  0  0  0  0  0  0  0  0  0  0  0
   27.5340   15.3880  -13.6380 N   0  0  0  0  0  0  0  0  0  0  0  0
   26.6300   15.2850   -9.4470 C   0  0  1  0  0  0  0  0  0  0  0  0
   26.3504    6.2714   -7.8454 H   0  0  0  0  0  0  0  0  0  0  0  0
   25.6964   10.5033   -8.3606 H   0  0  0  0  0  0  0  0  0  0  0  0
   27.1673   10.4788  -10.3767 H   0  0  0  0  0  0  0  0  0  0  0  0
   31.1587   11.5876  -12.6602 H   0  0  0  0  0  0  0  0  0  0  0  0
   27.0599   11.5025  -14.0038 H   0  0  0  0  0  0  0  0  0  0  0  0
   26.6814    9.4107  -12.7043 H   0  0  0  0  0  0  0  0  0  0  0  0
   29.6429    6.5773  -10.9359 H   0  0  0  0  0  0  0  0  0  0  0  0
   28.5584    6.5555  -12.3676 H   0  0  0  0  0  0  0  0  0  0  0  0
   30.0252    7.5925  -12.3676 H   0  0  0  0  0  0  0  0  0  0  0  0
   30.0565   13.5735  -12.4495 H   0  0  0  0  0  0  0  0  0  0  0  0
   29.8928   14.6617  -14.0169 H   0  0  0  0  0  0  0  0  0  0  0  0
   28.6810   14.0451  -10.7261 H   0  0  0  0  0  0  0  0  0  0  0  0
   25.2719   16.5983  -11.3992 H   0  0  0  0  0  0  0  0  0  0  0  0
   25.7979   16.6617  -13.8328 H   0  0  0  0  0  0  0  0  0  0  0  0
   27.5601   15.3906   -8.8692 H   0  0  0  0  0  0  0  0  0  0  0  0
   25.9480   16.1115   -9.1983 H   0  0  0  0  0  0  0  0  0  0  0  0
   26.1507   14.3267   -9.1983 H   0  0  0  0  0  0  0  0  0  0  0  0
  1  5  1  0
  1  7  1  0
  1  2  2  0
  2  3  1  0
  3  4  2  0
  4  6  1  0
  5  8  1  0
  5 14  1  0
  6  7  2  0
  8 13  1  0
  8  9  2  0
  9 10  1  0
 10 11  2  0
 11 15  1  0
 11 12  1  0
 12 13  2  0
 15 16  1  0
 16 17  1  0
 17 22  1  0
 17 18  2  0
 18 19  1  0
 19 20  2  0
 19 23  1  0
 20 21  1  0
 21 22  2  0
  3 24  1  0
  6 25  1  0
  7 26  1  0
 10 27  1  0
 12 28  1  0
 13 29  1  0
 14 30  1  1
 14 31  1  0
 14 32  1  0
 16 33  1  1
 16 34  1  0
 18 35  1  0
 20 36  1  0
 21 37  1  0
 23 38  1  1
 23 39  1  0
 23 40  1  0
M  END
>  <Pose ID>  (111)
160

>  <Score>  (111)
-6.4933037757873535

>  <smiles>  (111)
Cc1ccnc(COc2ccc(N(C)c3ccncn3)nc2)c1

$$$$

     RDKit          3D

 28 29  0  0  0  0  0  0  0  0999 V2000
   27.7380    8.3620  -10.2100 C   0  0  0  0  0  0  0  0  0  0  0  0
   27.4290    7.1620   -9.5820 N   0  0  0  0  0  0  0  0  0  0  0  0
   26.7320    7.1650   -8.3810 C   0  0  0  0  0  0  0  0  0  0  0  0
   26.3430    8.3690   -7.8060 N   0  0  0  0  0  0  0  0  0  0  0  0
   28.3930    8.2670  -11.2910 N   0  0  0  0  0  0  0  0  0  0  0  0
   26.6510    9.5700   -8.4340 C   0  0  0  0  0  0  0  0  0  0  0  0
   27.3340    9.5600   -9.6510 C   0  0  0  0  0  0  0  0  0  0  0  0
   28.7000    9.3810  -11.9490 C   0  0  0  0  0  0  0  0  0  0  0  0
   30.0150    9.8120  -12.0720 N   0  0  0  0  0  0  0  0  0  0  0  0
   30.3020   10.9790  -12.7710 C   0  0  0  0  0  0  0  0  0  0  0  0
   29.2720   11.7180  -13.3420 C   0  0  0  0  0  0  0  0  0  0  0  0
   27.9560   11.2870  -13.2190 C   0  0  0  0  0  0  0  0  0  0  0  0
   27.6760   10.1020  -12.5450 C   0  0  0  0  0  0  0  0  0  0  0  0
   28.9420    7.1280  -12.0530 C   0  0  1  0  0  0  0  0  0  0  0  0
   29.5560   12.8760  -14.0310 O   0  0  0  0  0  0  0  0  0  0  0  0
   29.9330   13.8960  -13.1160 C   0  0  1  0  0  0  0  0  0  0  0  0
   26.4877    6.2143   -7.8846 H   0  0  0  0  0  0  0  0  0  0  0  0
   26.3575   10.5249   -7.9735 H   0  0  0  0  0  0  0  0  0  0  0  0
   27.5513   10.5072  -10.1664 H   0  0  0  0  0  0  0  0  0  0  0  0
   31.3437   11.3176  -12.8723 H   0  0  0  0  0  0  0  0  0  0  0  0
   27.1383   11.8810  -13.6532 H   0  0  0  0  0  0  0  0  0  0  0  0
   26.6403    9.7364  -12.4848 H   0  0  0  0  0  0  0  0  0  0  0  0
   29.3108    6.3629  -11.3540 H   0  0  0  0  0  0  0  0  0  0  0  0
   28.1531    6.6962  -12.6864 H   0  0  0  0  0  0  0  0  0  0  0  0
   29.7712    7.4762  -12.6864 H   0  0  0  0  0  0  0  0  0  0  0  0
   29.7988   13.5329  -12.0864 H   0  0  0  0  0  0  0  0  0  0  0  0
   30.9885   14.1609  -13.2767 H   0  0  0  0  0  0  0  0  0  0  0  0
   29.3036   14.7837  -13.2767 H   0  0  0  0  0  0  0  0  0  0  0  0
  1  5  1  0
  1  7  1  0
  1  2  2  0
  2  3  1  0
  3  4  2  0
  4  6  1  0
  5 14  1  0
  5  8  1  0
  6  7  2  0
  8 13  1  0
  8  9  2  0
  9 10  1  0
 10 11  2  0
 11 15  1  0
 11 12  1  0
 12 13  2  0
 15 16  1  0
  3 17  1  0
  6 18  1  0
  7 19  1  0
 10 20  1  0
 12 21  1  0
 13 22  1  0
 14 23  1  1
 14 24  1  0
 14 25  1  0
 16 26  1  1
 16 27  1  0
 16 28  1  0
M  END
>  <Pose ID>  (112)
155

>  <Score>  (112)
-6.4744768142700195

>  <smiles>  (112)
COc1ccc(N(C)c2ccncn2)nc1

$$$$

     RDKit          3D

 38 40  0  0  0  0  0  0  0  0999 V2000
   28.2640    8.2090  -10.6810 C   0  0  0  0  0  0  0  0  0  0  0  0
   27.6950    7.4230   -9.7910 N   0  0  0  0  0  0  0  0  0  0  0  0
   26.5060    7.8660   -9.2220 C   0  0  0  0  0  0  0  0  0  0  0  0
   25.8770    7.1000   -8.3250 O   0  0  0  0  0  0  0  0  0  0  0  0
   27.7520    9.4360  -11.0880 C   0  0  0  0  0  0  0  0  0  0  0  0
   26.6160    9.8720  -10.5500 C   0  0  0  0  0  0  0  0  0  0  0  0
   25.9670    9.0880   -9.6000 C   0  0  0  0  0  0  0  0  0  0  0  0
   28.4290   10.1910  -12.0350 C   0  0  0  0  0  0  0  0  0  0  0  0
   29.6180    9.7230  -12.5770 C   0  0  0  0  0  0  0  0  0  0  0  0
   30.1320    8.4970  -12.1700 C   0  0  0  0  0  0  0  0  0  0  0  0
   29.4930    7.7440  -11.2050 C   0  0  0  0  0  0  0  0  0  0  0  0
   26.0180    7.6400   -7.0100 C   0  0  1  0  0  0  0  0  0  0  0  0
   24.7920    9.5270   -9.0370 N   0  0  0  0  0  0  0  0  0  0  0  0
   24.4130   10.7240   -8.3500 C   0  0  0  0  0  0  0  0  0  0  0  0
   25.3900   11.7010   -8.4990 N   0  0  0  0  0  0  0  0  0  0  0  0
   25.2260   12.9450   -7.9000 C   0  0  0  0  0  0  0  0  0  0  0  0
   24.0830   13.2120   -7.1550 C   0  0  0  0  0  0  0  0  0  0  0  0
   23.1050   12.2340   -7.0080 N   0  0  0  0  0  0  0  0  0  0  0  0
   23.2710   10.9910   -7.5970 C   0  0  0  0  0  0  0  0  0  0  0  0
   23.9370   14.3260   -6.6190 O   0  0  0  0  0  0  0  0  0  0  0  0
   26.2870   14.0050   -8.0610 C   0  0  1  0  0  0  0  0  0  0  0  0
   27.8720   11.5220  -12.4760 C   0  0  1  0  0  0  0  0  0  0  0  0
   26.1940   10.8417  -10.8526 H   0  0  0  0  0  0  0  0  0  0  0  0
   30.1535   10.3219  -13.3284 H   0  0  0  0  0  0  0  0  0  0  0  0
   31.0612    8.1214  -12.6233 H   0  0  0  0  0  0  0  0  0  0  0  0
   29.9316    6.7997  -10.8501 H   0  0  0  0  0  0  0  0  0  0  0  0
   25.8130    6.8549   -6.2673 H   0  0  0  0  0  0  0  0  0  0  0  0
   27.0438    8.0135   -6.8751 H   0  0  0  0  0  0  0  0  0  0  0  0
   25.3058    8.4674   -6.8751 H   0  0  0  0  0  0  0  0  0  0  0  0
   24.0206    8.8508   -9.1292 H   0  0  0  0  0  0  0  0  0  0  0  0
   22.2559   12.4342   -6.4603 H   0  0  0  0  0  0  0  0  0  0  0  0
   22.5017   10.2150   -7.4704 H   0  0  0  0  0  0  0  0  0  0  0  0
   26.6232   14.3409   -7.0690 H   0  0  0  0  0  0  0  0  0  0  0  0
   27.1405   13.5882   -8.6157 H   0  0  0  0  0  0  0  0  0  0  0  0
   25.8710   14.8589   -8.6157 H   0  0  0  0  0  0  0  0  0  0  0  0
   27.6196   12.1251  -11.5914 H   0  0  0  0  0  0  0  0  0  0  0  0
   28.6237   12.0524  -13.0791 H   0  0  0  0  0  0  0  0  0  0  0  0
   26.9666   11.3589  -13.0791 H   0  0  0  0  0  0  0  0  0  0  0  0
  1 11  1  0
  1  5  1  0
  1  2  2  0
  2  3  1  0
  3  7  2  0
  3  4  1  0
  5  8  1  0
  5  6  2  0
  6  7  1  0
  7 13  1  0
  8  9  2  0
  8 22  1  0
  9 10  1  0
 10 11  2  0
  4 12  1  0
 13 14  1  0
 14 15  1  0
 14 19  2  0
 15 16  2  0
 16 21  1  0
 16 17  1  0
 17 18  1  0
 17 20  2  0
 18 19  1  0
  6 23  1  0
  9 24  1  0
 10 25  1  0
 11 26  1  0
 12 27  1  1
 12 28  1  0
 12 29  1  0
 13 30  1  0
 18 31  1  0
 19 32  1  0
 21 33  1  1
 21 34  1  0
 21 35  1  0
 22 36  1  1
 22 37  1  0
 22 38  1  0
M  END
>  <Pose ID>  (113)
142

>  <Score>  (113)
-6.461793422698975

>  <smiles>  (113)
COc1nc2cccc(C)c2cc1Nc1c[nH]c(=O)c(C)n1

$$$$

     RDKit          3D

 30 31  0  0  0  0  0  0  0  0999 V2000
   27.9470    7.3910  -10.5410 C   0  0  0  0  0  0  0  0  0  0  0  0
   27.2300    7.0420   -9.4050 N   0  0  0  0  0  0  0  0  0  0  0  0
   26.4720    7.9960   -8.7370 C   0  0  0  0  0  0  0  0  0  0  0  0
   26.4350    9.3010   -9.2070 C   0  0  0  0  0  0  0  0  0  0  0  0
   25.6230   10.3190   -8.5470 N   0  0  0  0  0  0  0  0  0  0  0  0
   27.9090    8.6970  -11.0110 C   0  0  0  0  0  0  0  0  0  0  0  0
   27.1510    9.6550  -10.3420 C   0  0  0  0  0  0  0  0  0  0  0  0
   26.2460   11.3250   -7.9750 C   0  0  0  0  0  0  0  0  0  0  0  0
   27.4160   11.6270   -8.0340 O   0  0  0  0  0  0  0  0  0  0  0  0
   25.3970   12.3560   -7.0330 C   0  0  0  0  0  0  0  0  0  0  0  0
   24.2420   12.9670   -7.5060 N   0  0  0  0  0  0  0  0  0  0  0  0
   25.8560   12.6340   -5.7510 C   0  0  0  0  0  0  0  0  0  0  0  0
   25.1590   13.5250   -4.9430 N   0  0  0  0  0  0  0  0  0  0  0  0
   23.5450   13.8570   -6.6970 C   0  0  0  0  0  0  0  0  0  0  0  0
   23.9810   14.1330   -5.4300 C   0  0  0  0  0  0  0  0  0  0  0  0
   26.8890   12.0860   -5.3270 O   0  0  0  0  0  0  0  0  0  0  0  0
   23.2050   15.0840   -4.5550 C   0  0  1  0  0  0  0  0  0  0  0  0
   27.1070   11.0750  -10.8510 C   0  0  1  0  0  0  0  0  0  0  0  0
   28.5450    6.6334  -11.0687 H   0  0  0  0  0  0  0  0  0  0  0  0
   25.9028    7.7174   -7.8379 H   0  0  0  0  0  0  0  0  0  0  0  0
   24.5954   10.2511   -8.5302 H   0  0  0  0  0  0  0  0  0  0  0  0
   28.4771    8.9748  -11.9110 H   0  0  0  0  0  0  0  0  0  0  0  0
   25.4996   13.7404   -3.9951 H   0  0  0  0  0  0  0  0  0  0  0  0
   22.6353   14.3434   -7.0788 H   0  0  0  0  0  0  0  0  0  0  0  0
   23.3968   14.8489   -3.4977 H   0  0  0  0  0  0  0  0  0  0  0  0
   23.5218   16.1164   -4.7644 H   0  0  0  0  0  0  0  0  0  0  0  0
   22.1301   14.9807   -4.7644 H   0  0  0  0  0  0  0  0  0  0  0  0
   27.0855   11.7696   -9.9983 H   0  0  0  0  0  0  0  0  0  0  0  0
   27.9994   11.2730  -11.4628 H   0  0  0  0  0  0  0  0  0  0  0  0
   26.2040   11.2174  -11.4628 H   0  0  0  0  0  0  0  0  0  0  0  0
  5  4  1  0
  5  8  1  0
  8  9  2  0
  8 10  1  0
 10 11  2  0
 10 12  1  0
 11 14  1  0
 12 16  2  0
 12 13  1  0
 13 15  1  0
 14 15  2  0
 15 17  1  0
  1  6  2  0
  1  2  1  0
  2  3  2  0
  3  4  1  0
  4  7  2  0
  6  7  1  0
  7 18  1  0
  1 19  1  0
  3 20  1  0
  5 21  1  0
  6 22  1  0
 13 23  1  0
 14 24  1  0
 17 25  1  1
 17 26  1  0
 17 27  1  0
 18 28  1  1
 18 29  1  0
 18 30  1  0
M  END
>  <Pose ID>  (114)
46

>  <Score>  (114)
-6.367509841918945

>  <smiles>  (114)
Cc1cnc(C(=O)Nc2cnccc2C)c(=O)[nH]1

$$$$

     RDKit          3D

 23 25  0  0  0  0  0  0  0  0999 V2000
   28.0350    8.2080  -10.3610 C   0  0  0  0  0  0  0  0  0  0  0  0
   27.6130    7.0610   -9.7010 N   0  0  0  0  0  0  0  0  0  0  0  0
   26.4290    7.0710   -8.9750 C   0  0  0  0  0  0  0  0  0  0  0  0
   25.6630    8.2290   -8.9100 N   0  0  0  0  0  0  0  0  0  0  0  0
   26.0820    9.3750   -9.5720 C   0  0  0  0  0  0  0  0  0  0  0  0
   27.2680    9.3650  -10.2970 C   0  0  0  0  0  0  0  0  0  0  0  0
   25.5240   10.5970   -9.6570 N   0  0  0  0  0  0  0  0  0  0  0  0
   26.2350   11.3130  -10.3500 N   0  0  0  0  0  0  0  0  0  0  0  0
   27.2880   10.6740  -10.7820 C   0  0  0  0  0  0  0  0  0  0  0  0
   28.3800   11.0200  -11.5960 C   0  0  0  0  0  0  0  0  0  0  0  0
   28.4310   12.3500  -12.1370 C   0  0  0  0  0  0  0  0  0  0  0  0
   29.4390   12.5310  -12.8290 C   0  0  0  0  0  0  0  0  0  0  0  0
   29.4180   10.3120  -12.0670 O   0  0  0  0  0  0  0  0  0  0  0  0
   30.1240   11.1180  -12.8240 C   0  0  0  0  0  0  0  0  0  0  0  0
   31.3840   10.7490  -13.5670 C   0  0  1  0  0  0  0  0  0  0  0  0
   28.9744    8.2005  -10.9332 H   0  0  0  0  0  0  0  0  0  0  0  0
   26.0974    6.1623   -8.4513 H   0  0  0  0  0  0  0  0  0  0  0  0
   24.7852    8.2368   -8.3711 H   0  0  0  0  0  0  0  0  0  0  0  0
   27.6633   13.1169  -11.9566 H   0  0  0  0  0  0  0  0  0  0  0  0
   29.7735   13.4538  -13.3256 H   0  0  0  0  0  0  0  0  0  0  0  0
   32.1804   10.5158  -12.8450 H   0  0  0  0  0  0  0  0  0  0  0  0
   31.1927    9.8691  -14.1989 H   0  0  0  0  0  0  0  0  0  0  0  0
   31.6976   11.5930  -14.1989 H   0  0  0  0  0  0  0  0  0  0  0  0
  1  6  2  0
  1  2  1  0
  2  3  2  0
  3  4  1  0
  4  5  1  0
  5  6  1  0
  5  7  2  0
  6  9  1  0
  7  8  1  0
  8  9  2  0
  9 10  1  0
 10 11  2  0
 10 13  1  0
 11 12  1  0
 12 14  2  0
 13 14  1  0
 14 15  1  0
  1 16  1  0
  3 17  1  0
  4 18  1  0
 11 19  1  0
 12 20  1  0
 15 21  1  1
 15 22  1  0
 15 23  1  0
M  END
>  <Pose ID>  (115)
23

>  <Score>  (115)
-6.324471950531006

>  <smiles>  (115)
Cc1ccc(-c2nnc3[nH]cncc2-3)o1

$$$$

     RDKit          3D

 24 25  0  0  0  0  0  0  0  0999 V2000
   26.3490    7.0420   -8.5080 C   0  0  0  0  0  0  0  0  0  0  0  0
   27.2780    7.0950   -9.5400 N   0  0  0  0  0  0  0  0  0  0  0  0
   27.6600    8.3210  -10.0720 C   0  0  0  0  0  0  0  0  0  0  0  0
   28.5650    8.0190  -11.0520 N   0  0  0  0  0  0  0  0  0  0  0  0
   25.8020    8.2150   -8.0060 N   0  0  0  0  0  0  0  0  0  0  0  0
   26.1820    9.4430   -8.5350 C   0  0  0  0  0  0  0  0  0  0  0  0
   27.1120    9.4970   -9.5680 C   0  0  0  0  0  0  0  0  0  0  0  0
   29.1470    9.1680  -11.7350 C   0  0  0  0  0  0  0  0  0  0  0  0
   30.5090    9.3290  -11.9690 N   0  0  0  0  0  0  0  0  0  0  0  0
   30.9710   10.4590  -12.6320 C   0  0  0  0  0  0  0  0  0  0  0  0
   30.0730   11.4270  -13.0630 C   0  0  0  0  0  0  0  0  0  0  0  0
   28.7120   11.2670  -12.8300 C   0  0  0  0  0  0  0  0  0  0  0  0
   28.2480   10.1200  -12.1910 C   0  0  0  0  0  0  0  0  0  0  0  0
   30.5750   12.6530  -13.7850 C   0  0  1  0  0  0  0  0  0  0  0  0
   26.0471    6.0708   -8.0889 H   0  0  0  0  0  0  0  0  0  0  0  0
   28.8173    7.0492  -11.2904 H   0  0  0  0  0  0  0  0  0  0  0  0
   25.7474   10.3718   -8.1369 H   0  0  0  0  0  0  0  0  0  0  0  0
   27.4142   10.4685   -9.9863 H   0  0  0  0  0  0  0  0  0  0  0  0
   32.0480   10.5871  -12.8156 H   0  0  0  0  0  0  0  0  0  0  0  0
   28.0029   12.0448  -13.1497 H   0  0  0  0  0  0  0  0  0  0  0  0
   27.1678    9.9692  -12.0480 H   0  0  0  0  0  0  0  0  0  0  0  0
   30.8851   13.4102  -13.0498 H   0  0  0  0  0  0  0  0  0  0  0  0
   31.4341   12.3810  -14.4158 H   0  0  0  0  0  0  0  0  0  0  0  0
   29.7718   13.0616  -14.4158 H   0  0  0  0  0  0  0  0  0  0  0  0
  4  8  1  0
  4  3  1  0
  8 13  1  0
  8  9  2  0
  9 10  1  0
 10 11  2  0
 11 14  1  0
 11 12  1  0
 12 13  2  0
  1  2  2  0
  1  5  1  0
  2  3  1  0
  3  7  2  0
  5  6  2  0
  6  7  1  0
  1 15  1  0
  4 16  1  0
  6 17  1  0
  7 18  1  0
 10 19  1  0
 12 20  1  0
 13 21  1  0
 14 22  1  1
 14 23  1  0
 14 24  1  0
M  END
>  <Pose ID>  (116)
65

>  <Score>  (116)
-6.3230719566345215

>  <smiles>  (116)
Cc1ccc(Nc2ccncn2)nc1

$$$$

     RDKit          3D

 40 42  0  0  0  0  0  0  0  0999 V2000
   27.6380    8.3630  -10.1840 C   0  0  0  0  0  0  0  0  0  0  0  0
   27.3940    7.1860   -9.4870 N   0  0  0  0  0  0  0  0  0  0  0  0
   26.5550    7.1940   -8.3790 C   0  0  0  0  0  0  0  0  0  0  0  0
   25.9640    8.3820   -7.9670 N   0  0  0  0  0  0  0  0  0  0  0  0
   28.4300    8.2670  -11.1700 N   0  0  0  0  0  0  0  0  0  0  0  0
   26.2050    9.5590   -8.6640 C   0  0  0  0  0  0  0  0  0  0  0  0
   27.0310    9.5410   -9.7880 C   0  0  0  0  0  0  0  0  0  0  0  0
   28.6840    9.3550  -11.8900 C   0  0  0  0  0  0  0  0  0  0  0  0
   29.9440    9.9370  -11.9010 N   0  0  0  0  0  0  0  0  0  0  0  0
   30.1800   11.0750  -12.6690 C   0  0  0  0  0  0  0  0  0  0  0  0
   29.1500   11.6300  -13.4200 C   0  0  0  0  0  0  0  0  0  0  0  0
   27.8890   11.0460  -13.4070 C   0  0  0  0  0  0  0  0  0  0  0  0
   27.6660    9.8930  -12.6620 C   0  0  0  0  0  0  0  0  0  0  0  0
   29.1960    7.1500  -11.7560 C   0  0  1  0  0  0  0  0  0  0  0  0
   29.3810   12.7570  -14.1750 O   0  0  0  0  0  0  0  0  0  0  0  0
   29.5210   13.8840  -13.3210 C   0  0  1  0  0  0  0  0  0  0  0  0
   28.3940   14.6360  -12.7590 C   0  0  0  0  0  0  0  0  0  0  0  0
   28.1130   14.6020  -11.3980 C   0  0  0  0  0  0  0  0  0  0  0  0
   27.0280   15.3100  -10.8950 C   0  0  0  0  0  0  0  0  0  0  0  0
   26.2220   16.0490  -11.7530 C   0  0  0  0  0  0  0  0  0  0  0  0
   26.5030   16.0820  -13.1150 C   0  0  0  0  0  0  0  0  0  0  0  0
   27.5890   15.3760  -13.6180 N   0  0  0  0  0  0  0  0  0  0  0  0
   25.0420   16.8150  -11.2080 C   0  0  1  0  0  0  0  0  0  0  0  0
   26.3592    6.2615   -7.8293 H   0  0  0  0  0  0  0  0  0  0  0  0
   25.7463   10.5017   -8.3310 H   0  0  0  0  0  0  0  0  0  0  0  0
   27.1998   10.4651  -10.3603 H   0  0  0  0  0  0  0  0  0  0  0  0
   31.1797   11.5338  -12.6812 H   0  0  0  0  0  0  0  0  0  0  0  0
   27.0682   11.4952  -13.9853 H   0  0  0  0  0  0  0  0  0  0  0  0
   26.6796    9.4068  -12.6854 H   0  0  0  0  0  0  0  0  0  0  0  0
   29.6192    6.5328  -10.9498 H   0  0  0  0  0  0  0  0  0  0  0  0
   28.5292    6.5343  -12.3775 H   0  0  0  0  0  0  0  0  0  0  0  0
   30.0106    7.5502  -12.3775 H   0  0  0  0  0  0  0  0  0  0  0  0
   30.1041   13.5321  -12.4572 H   0  0  0  0  0  0  0  0  0  0  0  0
   29.9363   14.6243  -14.0206 H   0  0  0  0  0  0  0  0  0  0  0  0
   28.7492   14.0149  -10.7194 H   0  0  0  0  0  0  0  0  0  0  0  0
   26.8071   15.2855   -9.8177 H   0  0  0  0  0  0  0  0  0  0  0  0
   25.8653   16.6671  -13.7940 H   0  0  0  0  0  0  0  0  0  0  0  0
   25.0695   16.7972  -10.1085 H   0  0  0  0  0  0  0  0  0  0  0  0
   25.0871   17.8565  -11.5591 H   0  0  0  0  0  0  0  0  0  0  0  0
   24.1091   16.3498  -11.5591 H   0  0  0  0  0  0  0  0  0  0  0  0
  1  5  1  0
  1  7  1  0
  1  2  2  0
  2  3  1  0
  3  4  2  0
  4  6  1  0
  5  8  1  0
  5 14  1  0
  6  7  2  0
  8 13  1  0
  8  9  2  0
  9 10  1  0
 10 11  2  0
 11 15  1  0
 11 12  1  0
 12 13  2  0
 15 16  1  0
 16 17  1  0
 17 22  1  0
 17 18  2  0
 18 19  1  0
 19 20  2  0
 20 21  1  0
 20 23  1  0
 21 22  2  0
  3 24  1  0
  6 25  1  0
  7 26  1  0
 10 27  1  0
 12 28  1  0
 13 29  1  0
 14 30  1  1
 14 31  1  0
 14 32  1  0
 16 33  1  1
 16 34  1  0
 18 35  1  0
 19 36  1  0
 21 37  1  0
 23 38  1  1
 23 39  1  0
 23 40  1  0
M  END
>  <Pose ID>  (117)
161

>  <Score>  (117)
-6.302526950836182

>  <smiles>  (117)
Cc1ccc(COc2ccc(N(C)c3ccncn3)nc2)nc1

$$$$

     RDKit          3D

 37 40  0  0  0  0  0  0  0  0999 V2000
   28.3080    8.1760  -10.8410 C   0  0  0  0  0  0  0  0  0  0  0  0
   27.7390    7.0430  -10.2700 N   0  0  0  0  0  0  0  0  0  0  0  0
   26.8200    7.1740   -9.2320 C   0  0  0  0  0  0  0  0  0  0  0  0
   26.4730    8.4380   -8.7670 N   0  0  0  0  0  0  0  0  0  0  0  0
   27.0420    9.5700   -9.3380 C   0  0  0  0  0  0  0  0  0  0  0  0
   27.9200    9.4760  -10.3420 C   0  0  0  0  0  0  0  0  0  0  0  0
   26.8690   10.8710   -9.0530 N   0  0  0  0  0  0  0  0  0  0  0  0
   27.5600   11.5490   -9.7960 N   0  0  0  0  0  0  0  0  0  0  0  0
   28.2370   10.8000  -10.6300 C   0  0  0  0  0  0  0  0  0  0  0  0
   29.1190   11.2520  -11.6290 C   0  0  0  0  0  0  0  0  0  0  0  0
   28.8160   12.3660  -12.4000 C   0  0  0  0  0  0  0  0  0  0  0  0
   30.0020   12.4830  -13.3230 C   0  0  0  0  0  0  0  0  0  0  0  0
   30.7510   11.4890  -13.0440 O   0  0  0  0  0  0  0  0  0  0  0  0
   30.2430   10.7420  -12.0990 C   0  0  0  0  0  0  0  0  0  0  0  0
   27.6120   13.2340  -12.3310 C   0  0  0  0  0  0  0  0  0  0  0  0
   26.5830   12.8760  -11.9740 O   0  0  0  0  0  0  0  0  0  0  0  0
   27.7330   14.6860  -12.7650 N   0  0  0  0  0  0  0  0  0  0  0  0
   26.6660   15.5510  -12.5110 C   0  0  2  0  0  0  0  0  0  0  0  0
   27.0790   16.9910  -12.9760 C   0  0  1  0  0  0  0  0  0  0  0  0
   26.4790   17.5180  -11.6290 C   0  0  1  0  0  0  0  0  0  0  0  0
   26.4780   16.0910  -11.1660 C   0  0  1  0  0  0  0  0  0  0  0  0
   30.2510   13.5500  -14.3590 C   0  0  1  0  0  0  0  0  0  0  0  0
   29.0397    8.0847  -11.6572 H   0  0  0  0  0  0  0  0  0  0  0  0
   26.3688    6.2783   -8.7801 H   0  0  0  0  0  0  0  0  0  0  0  0
   25.7938    8.5352   -7.9988 H   0  0  0  0  0  0  0  0  0  0  0  0
   30.6952    9.8057  -11.7401 H   0  0  0  0  0  0  0  0  0  0  0  0
   28.5838   15.0248  -13.2364 H   0  0  0  0  0  0  0  0  0  0  0  0
   25.8450   14.9404  -12.9149 H   0  0  0  0  0  0  0  0  0  0  0  0
   28.1625   17.1447  -13.0877 H   0  0  0  0  0  0  0  0  0  0  0  0
   26.7668   17.3984  -13.9489 H   0  0  0  0  0  0  0  0  0  0  0  0
   27.1411   18.1870  -11.0598 H   0  0  0  0  0  0  0  0  0  0  0  0
   25.5741   18.1426  -11.5977 H   0  0  0  0  0  0  0  0  0  0  0  0
   25.5272   15.7853  -10.7049 H   0  0  0  0  0  0  0  0  0  0  0  0
   27.1904   15.7966  -10.3812 H   0  0  0  0  0  0  0  0  0  0  0  0
   30.4735   14.5033  -13.8573 H   0  0  0  0  0  0  0  0  0  0  0  0
   31.1052   13.2584  -14.9877 H   0  0  0  0  0  0  0  0  0  0  0  0
   29.3559   13.6666  -14.9877 H   0  0  0  0  0  0  0  0  0  0  0  0
 10 11  1  0
 10 14  2  0
 10  9  1  0
 11 12  2  0
 11 15  1  0
 12 22  1  0
 12 13  1  0
 13 14  1  0
  1  6  2  0
  1  2  1  0
  2  3  2  0
  3  4  1  0
  4  5  1  0
  5  6  1  0
  5  7  2  0
  6  9  1  0
  7  8  1  0
  8  9  2  0
 15 17  1  0
 15 16  2  0
 17 18  1  0
 18 19  1  0
 18 21  1  0
 19 20  1  0
 20 21  1  0
  1 23  1  0
  3 24  1  0
  4 25  1  0
 14 26  1  0
 17 27  1  0
 18 28  1  6
 19 29  1  1
 19 30  1  0
 20 31  1  1
 20 32  1  0
 21 33  1  1
 21 34  1  0
 22 35  1  1
 22 36  1  0
 22 37  1  0
M  END
>  <Pose ID>  (118)
129

>  <Score>  (118)
-6.301311492919922

>  <smiles>  (118)
Cc1occ(-c2nnc3[nH]cncc2-3)c1C(=O)NC1CCC1

$$$$

     RDKit          3D

 24 25  0  0  0  0  0  0  0  0999 V2000
   26.4220    7.0420   -8.4490 C   0  0  0  0  0  0  0  0  0  0  0  0
   27.3300    7.0900   -9.5000 N   0  0  0  0  0  0  0  0  0  0  0  0
   27.6700    8.3110  -10.0700 C   0  0  0  0  0  0  0  0  0  0  0  0
   28.5640    8.0060  -11.0590 N   0  0  0  0  0  0  0  0  0  0  0  0
   25.8550    8.2130   -7.9670 N   0  0  0  0  0  0  0  0  0  0  0  0
   26.1930    9.4360   -8.5340 C   0  0  0  0  0  0  0  0  0  0  0  0
   27.1020    9.4860   -9.5860 C   0  0  0  0  0  0  0  0  0  0  0  0
   29.1040    9.1510  -11.7830 C   0  0  0  0  0  0  0  0  0  0  0  0
   30.4560    9.3400  -12.0470 N   0  0  0  0  0  0  0  0  0  0  0  0
   30.8770   10.4630  -12.7490 C   0  0  0  0  0  0  0  0  0  0  0  0
   29.9460   11.3970  -13.1870 C   0  0  0  0  0  0  0  0  0  0  0  0
   28.5940   11.2090  -12.9240 C   0  0  0  0  0  0  0  0  0  0  0  0
   28.1720   10.0680  -12.2460 C   0  0  0  0  0  0  0  0  0  0  0  0
   27.5870   12.2390  -13.3710 C   0  0  1  0  0  0  0  0  0  0  0  0
   26.1527    6.0751   -7.9990 H   0  0  0  0  0  0  0  0  0  0  0  0
   28.8364    7.0369  -11.2769 H   0  0  0  0  0  0  0  0  0  0  0  0
   25.7422   10.3636   -8.1514 H   0  0  0  0  0  0  0  0  0  0  0  0
   27.3716   10.4533  -10.0350 H   0  0  0  0  0  0  0  0  0  0  0  0
   31.9466   10.6125  -12.9578 H   0  0  0  0  0  0  0  0  0  0  0  0
   30.2792   12.2861  -13.7424 H   0  0  0  0  0  0  0  0  0  0  0  0
   27.0990    9.8939  -12.0776 H   0  0  0  0  0  0  0  0  0  0  0  0
   27.1273   12.7092  -12.4892 H   0  0  0  0  0  0  0  0  0  0  0  0
   28.0918   13.0074  -13.9749 H   0  0  0  0  0  0  0  0  0  0  0  0
   26.8074   11.7516  -13.9749 H   0  0  0  0  0  0  0  0  0  0  0  0
  4  8  1  0
  4  3  1  0
  8 13  1  0
  8  9  2  0
  9 10  1  0
 10 11  2  0
 11 12  1  0
 12 14  1  0
 12 13  2  0
  1  2  2  0
  1  5  1  0
  2  3  1  0
  3  7  2  0
  5  6  2  0
  6  7  1  0
  1 15  1  0
  4 16  1  0
  6 17  1  0
  7 18  1  0
 10 19  1  0
 11 20  1  0
 13 21  1  0
 14 22  1  1
 14 23  1  0
 14 24  1  0
M  END
>  <Pose ID>  (119)
63

>  <Score>  (119)
-6.2954487800598145

>  <smiles>  (119)
Cc1ccnc(Nc2ccncn2)c1

$$$$

     RDKit          3D

 44 46  0  0  0  0  0  0  0  0999 V2000
   25.2160   14.0050   -7.8090 C   0  0  0  0  0  0  0  0  0  0  0  0
   25.0610   12.7820   -8.4410 N   0  0  0  0  0  0  0  0  0  0  0  0
   26.0970   12.2600   -9.2050 C   0  0  0  0  0  0  0  0  0  0  0  0
   27.2890   12.9670   -9.3350 N   0  0  0  0  0  0  0  0  0  0  0  0
   26.4040   14.7110   -7.9330 C   0  0  0  0  0  0  0  0  0  0  0  0
   27.4400   14.1920   -8.7000 C   0  0  0  0  0  0  0  0  0  0  0  0
   25.7090   11.0480   -9.7240 N   0  0  0  0  0  0  0  0  0  0  0  0
   25.8980    9.8050   -9.0270 C   0  0  2  0  0  0  0  0  0  0  0  0
   27.2350    9.8900   -8.2180 C   0  0  1  0  0  0  0  0  0  0  0  0
   27.6510    8.5830   -7.6530 C   0  0  1  0  0  0  0  0  0  0  0  0
   27.6970    7.5720   -8.6830 O   0  0  0  0  0  0  0  0  0  0  0  0
   26.3650    7.3450   -9.1730 C   0  0  1  0  0  0  0  0  0  0  0  0
   25.9030    8.5850   -9.9040 C   0  0  1  0  0  0  0  0  0  0  0  0
   26.7930   15.9190   -7.4070 N   0  0  0  0  0  0  0  0  0  0  0  0
   26.5040   17.1740   -7.8970 C   0  0  0  0  0  0  0  0  0  0  0  0
   27.5100   18.0470   -8.2930 C   0  0  0  0  0  0  0  0  0  0  0  0
   27.1830   19.2940   -8.8130 C   0  0  0  0  0  0  0  0  0  0  0  0
   25.8490   19.6680   -8.9340 C   0  0  0  0  0  0  0  0  0  0  0  0
   24.8430   18.7940   -8.5360 N   0  0  0  0  0  0  0  0  0  0  0  0
   25.1670   17.5510   -8.0140 C   0  0  0  0  0  0  0  0  0  0  0  0
   25.5560   20.7840   -9.3990 O   0  0  0  0  0  0  0  0  0  0  0  0
   24.7110    9.7920   -8.0410 C   0  0  1  0  0  0  0  0  0  0  0  0
   28.9580   17.6420   -8.1600 C   0  0  1  0  0  0  0  0  0  0  0  0
   24.3938   14.4181   -7.2063 H   0  0  0  0  0  0  0  0  0  0  0  0
   28.3807   14.7525   -8.8040 H   0  0  0  0  0  0  0  0  0  0  0  0
   25.2635   11.0295  -10.6525 H   0  0  0  0  0  0  0  0  0  0  0  0
   28.0287   10.2513   -8.8884 H   0  0  0  0  0  0  0  0  0  0  0  0
   27.0680   10.5764   -7.3748 H   0  0  0  0  0  0  0  0  0  0  0  0
   28.6496    8.6857   -7.2032 H   0  0  0  0  0  0  0  0  0  0  0  0
   26.9183    8.2782   -6.8913 H   0  0  0  0  0  0  0  0  0  0  0  0
   26.3644    6.4870   -9.8614 H   0  0  0  0  0  0  0  0  0  0  0  0
   25.6874    7.1286   -8.3340 H   0  0  0  0  0  0  0  0  0  0  0  0
   24.8820    8.4146  -10.2762 H   0  0  0  0  0  0  0  0  0  0  0  0
   26.6095    8.7692  -10.7267 H   0  0  0  0  0  0  0  0  0  0  0  0
   27.3644   15.8825   -6.5508 H   0  0  0  0  0  0  0  0  0  0  0  0
   27.9789   19.9846   -9.1286 H   0  0  0  0  0  0  0  0  0  0  0  0
   23.8552   19.0707   -8.6292 H   0  0  0  0  0  0  0  0  0  0  0  0
   24.3705   16.8636   -7.6928 H   0  0  0  0  0  0  0  0  0  0  0  0
   25.0916    9.7962   -7.0089 H   0  0  0  0  0  0  0  0  0  0  0  0
   24.0878   10.6834   -8.2056 H   0  0  0  0  0  0  0  0  0  0  0  0
   24.1075    8.8872   -8.2056 H   0  0  0  0  0  0  0  0  0  0  0  0
   29.2217   17.5682   -7.0946 H   0  0  0  0  0  0  0  0  0  0  0  0
   29.1118   16.6664   -8.6442 H   0  0  0  0  0  0  0  0  0  0  0  0
   29.5957   18.3963   -8.6442 H   0  0  0  0  0  0  0  0  0  0  0  0
  1  2  2  0
  1  5  1  0
  2  3  1  0
  3  7  1  0
  3  4  2  0
  4  6  1  0
  5  6  2  0
  5 14  1  0
  8  7  1  6
  8 13  1  0
  8  9  1  0
  8 22  1  0
  9 10  1  0
 10 11  1  0
 11 12  1  0
 12 13  1  0
 14 15  1  0
 15 16  1  0
 15 20  2  0
 16 17  2  0
 16 23  1  0
 17 18  1  0
 18 21  2  0
 18 19  1  0
 19 20  1  0
  1 24  1  0
  6 25  1  0
  7 26  1  0
  9 27  1  6
  9 28  1  0
 10 29  1  1
 10 30  1  0
 12 31  1  6
 12 32  1  0
 13 33  1  6
 13 34  1  0
 14 35  1  0
 17 36  1  0
 19 37  1  0
 20 38  1  0
 22 39  1  1
 22 40  1  0
 22 41  1  0
 23 42  1  1
 23 43  1  0
 23 44  1  0
M  END
>  <Pose ID>  (120)
208

>  <Score>  (120)
-6.2707200050354

>  <smiles>  (120)
Cc1cc(=O)[nH]cc1Nc1cnc(NC2(C)CCOCC2)nc1

$$$$

     RDKit          3D

 30 31  0  0  0  0  0  0  0  0999 V2000
   27.8850    7.3890  -10.6000 C   0  0  0  0  0  0  0  0  0  0  0  0
   27.1950    7.0420   -9.4470 N   0  0  0  0  0  0  0  0  0  0  0  0
   26.4610    8.0000   -8.7580 C   0  0  0  0  0  0  0  0  0  0  0  0
   26.4200    9.3060   -9.2240 C   0  0  0  0  0  0  0  0  0  0  0  0
   25.6320   10.3280   -8.5420 N   0  0  0  0  0  0  0  0  0  0  0  0
   27.8440    8.6970  -11.0660 C   0  0  0  0  0  0  0  0  0  0  0  0
   27.1090    9.6580  -10.3760 C   0  0  0  0  0  0  0  0  0  0  0  0
   26.2760   11.3290   -7.9840 C   0  0  0  0  0  0  0  0  0  0  0  0
   27.4460   11.6230   -8.0720 O   0  0  0  0  0  0  0  0  0  0  0  0
   25.4590   12.3630   -7.0170 C   0  0  0  0  0  0  0  0  0  0  0  0
   24.2950   12.9820   -7.4600 N   0  0  0  0  0  0  0  0  0  0  0  0
   25.9520   12.6350   -5.7480 C   0  0  0  0  0  0  0  0  0  0  0  0
   25.2820   13.5290   -4.9200 N   0  0  0  0  0  0  0  0  0  0  0  0
   23.6260   13.8750   -6.6320 C   0  0  0  0  0  0  0  0  0  0  0  0
   24.0960   14.1450   -5.3760 C   0  0  0  0  0  0  0  0  0  0  0  0
   26.9920   12.0800   -5.3510 O   0  0  0  0  0  0  0  0  0  0  0  0
   23.3490   15.1000   -4.4790 C   0  0  1  0  0  0  0  0  0  0  0  0
   24.1100   16.3970   -4.3990 C   0  0  1  0  0  0  0  0  0  0  0  0
   28.4641    6.6287  -11.1446 H   0  0  0  0  0  0  0  0  0  0  0  0
   25.9136    7.7233   -7.8449 H   0  0  0  0  0  0  0  0  0  0  0  0
   24.6047   10.2669   -8.4993 H   0  0  0  0  0  0  0  0  0  0  0  0
   28.3915    8.9735  -11.9791 H   0  0  0  0  0  0  0  0  0  0  0  0
   27.0747   10.6942  -10.7436 H   0  0  0  0  0  0  0  0  0  0  0  0
   25.6482   13.7404   -3.9808 H   0  0  0  0  0  0  0  0  0  0  0  0
   22.7106   14.3691   -6.9895 H   0  0  0  0  0  0  0  0  0  0  0  0
   22.3466   15.2858   -4.8920 H   0  0  0  0  0  0  0  0  0  0  0  0
   23.2511   14.6648   -3.4735 H   0  0  0  0  0  0  0  0  0  0  0  0
   24.2674   16.6653   -3.3439 H   0  0  0  0  0  0  0  0  0  0  0  0
   25.0839   16.2820   -4.8973 H   0  0  0  0  0  0  0  0  0  0  0  0
   23.5346   17.1911   -4.8973 H   0  0  0  0  0  0  0  0  0  0  0  0
  5  4  1  0
  5  8  1  0
  8  9  2  0
  8 10  1  0
 10 11  2  0
 10 12  1  0
 11 14  1  0
 12 16  2  0
 12 13  1  0
 13 15  1  0
 14 15  2  0
 15 17  1  0
 17 18  1  0
  1  6  2  0
  1  2  1  0
  2  3  2  0
  3  4  1  0
  4  7  2  0
  6  7  1  0
  1 19  1  0
  3 20  1  0
  5 21  1  0
  6 22  1  0
  7 23  1  0
 13 24  1  0
 14 25  1  0
 17 26  1  6
 17 27  1  0
 18 28  1  1
 18 29  1  0
 18 30  1  0
M  END
>  <Pose ID>  (121)
43

>  <Score>  (121)
-6.268820285797119

>  <smiles>  (121)
CCc1cnc(C(=O)Nc2cccnc2)c(=O)[nH]1

$$$$

     RDKit          3D

 35 38  0  0  0  0  0  0  0  0999 V2000
   28.2950    8.2770  -10.7110 C   0  0  0  0  0  0  0  0  0  0  0  0
   27.7220    7.4460   -9.8650 N   0  0  0  0  0  0  0  0  0  0  0  0
   26.5310    7.8560   -9.2790 C   0  0  0  0  0  0  0  0  0  0  0  0
   25.8990    7.0430   -8.4250 O   0  0  0  0  0  0  0  0  0  0  0  0
   27.7810    9.5220  -11.0570 C   0  0  0  0  0  0  0  0  0  0  0  0
   26.6420    9.9270  -10.5020 C   0  0  0  0  0  0  0  0  0  0  0  0
   25.9910    9.0950   -9.5970 C   0  0  0  0  0  0  0  0  0  0  0  0
   28.4600   10.3260  -11.9600 C   0  0  0  0  0  0  0  0  0  0  0  0
   29.6540    9.8900  -12.5200 C   0  0  0  0  0  0  0  0  0  0  0  0
   30.1680    8.6460  -12.1750 C   0  0  0  0  0  0  0  0  0  0  0  0
   29.5260    7.8420  -11.2510 C   0  0  0  0  0  0  0  0  0  0  0  0
   26.0330    7.5180   -7.0830 C   0  0  1  0  0  0  0  0  0  0  0  0
   24.8100    9.5020   -9.0190 N   0  0  0  0  0  0  0  0  0  0  0  0
   24.4260   10.6600   -8.2740 C   0  0  0  0  0  0  0  0  0  0  0  0
   25.4020   11.6450   -8.3660 N   0  0  0  0  0  0  0  0  0  0  0  0
   25.2310   12.8580   -7.7070 C   0  0  0  0  0  0  0  0  0  0  0  0
   24.0850   13.0840   -6.9540 C   0  0  0  0  0  0  0  0  0  0  0  0
   23.1080   12.0990   -6.8620 N   0  0  0  0  0  0  0  0  0  0  0  0
   23.2790   10.8870   -7.5130 C   0  0  0  0  0  0  0  0  0  0  0  0
   24.1490   14.3640   -6.3950 C   0  0  0  0  0  0  0  0  0  0  0  0
   25.4060   14.8380   -6.7030 N   0  0  0  0  0  0  0  0  0  0  0  0
   26.1160   14.0210   -7.4090 C   0  0  0  0  0  0  0  0  0  0  0  0
   26.2191   10.9101  -10.7562 H   0  0  0  0  0  0  0  0  0  0  0  0
   28.0525   11.3105  -12.2332 H   0  0  0  0  0  0  0  0  0  0  0  0
   30.1921   10.5288  -13.2358 H   0  0  0  0  0  0  0  0  0  0  0  0
   31.0993    8.2956  -12.6438 H   0  0  0  0  0  0  0  0  0  0  0  0
   29.9654    6.8820  -10.9423 H   0  0  0  0  0  0  0  0  0  0  0  0
   25.8031    6.7030   -6.3809 H   0  0  0  0  0  0  0  0  0  0  0  0
   27.0639    7.8643   -6.9178 H   0  0  0  0  0  0  0  0  0  0  0  0
   25.3351    8.3521   -6.9178 H   0  0  0  0  0  0  0  0  0  0  0  0
   24.0404    8.8303   -9.1512 H   0  0  0  0  0  0  0  0  0  0  0  0
   22.2558   12.2701   -6.3093 H   0  0  0  0  0  0  0  0  0  0  0  0
   22.5104   10.1045   -7.4295 H   0  0  0  0  0  0  0  0  0  0  0  0
   23.3619   14.8833   -5.8287 H   0  0  0  0  0  0  0  0  0  0  0  0
   27.1607   14.1559   -7.7258 H   0  0  0  0  0  0  0  0  0  0  0  0
  1 11  1  0
  1  5  1  0
  1  2  2  0
  2  3  1  0
  3  7  2  0
  3  4  1  0
  5  8  1  0
  5  6  2  0
  6  7  1  0
  7 13  1  0
  8  9  2  0
  9 10  1  0
 10 11  2  0
  4 12  1  0
 13 14  1  0
 14 15  1  0
 14 19  2  0
 15 16  2  0
 16 22  1  0
 16 17  1  0
 17 18  1  0
 17 20  2  0
 18 19  1  0
 20 21  1  0
 21 22  2  0
  6 23  1  0
  8 24  1  0
  9 25  1  0
 10 26  1  0
 11 27  1  0
 12 28  1  1
 12 29  1  0
 12 30  1  0
 13 31  1  0
 18 32  1  0
 19 33  1  0
 20 34  1  0
 22 35  1  0
M  END
>  <Pose ID>  (122)
137

>  <Score>  (122)
-6.252708911895752

>  <smiles>  (122)
COc1nc2ccccc2cc1Nc1c[nH]c2cncc-2n1

$$$$

     RDKit          3D

 38 40  0  0  0  0  0  0  0  0999 V2000
   25.9400   14.2170   -8.1500 C   0  0  0  0  0  0  0  0  0  0  0  0
   25.6280   12.9920   -8.7160 N   0  0  0  0  0  0  0  0  0  0  0  0
   26.6030   12.2740   -9.3950 C   0  0  0  0  0  0  0  0  0  0  0  0
   27.8910   12.7880   -9.5080 N   0  0  0  0  0  0  0  0  0  0  0  0
   27.2250   14.7310   -8.2580 C   0  0  0  0  0  0  0  0  0  0  0  0
   28.2000   14.0160   -8.9400 C   0  0  0  0  0  0  0  0  0  0  0  0
   26.0590   11.1010   -9.8610 N   0  0  0  0  0  0  0  0  0  0  0  0
   26.0300    9.8920   -9.0830 C   0  0  2  0  0  0  0  0  0  0  0  0
   27.3320    9.8330   -8.2150 C   0  0  1  0  0  0  0  0  0  0  0  0
   27.5240    8.5190   -7.5540 C   0  0  1  0  0  0  0  0  0  0  0  0
   27.4590    7.4460   -8.5190 O   0  0  0  0  0  0  0  0  0  0  0  0
   26.1280    7.3860   -9.0600 C   0  0  1  0  0  0  0  0  0  0  0  0
   25.8870    8.6300   -9.8850 C   0  0  1  0  0  0  0  0  0  0  0  0
   27.7690   15.9020   -7.7860 N   0  0  0  0  0  0  0  0  0  0  0  0
   27.6980   17.1390   -8.3610 C   0  0  0  0  0  0  0  0  0  0  0  0
   26.4420   17.7000   -8.5610 C   0  0  0  0  0  0  0  0  0  0  0  0
   26.3260   18.9500   -9.1590 C   0  0  0  0  0  0  0  0  0  0  0  0
   27.4660   19.6380   -9.5570 N   0  0  0  0  0  0  0  0  0  0  0  0
   28.7220   19.0770   -9.3570 C   0  0  0  0  0  0  0  0  0  0  0  0
   28.8380   17.8280   -8.7590 C   0  0  0  0  0  0  0  0  0  0  0  0
   29.7430   19.6930   -9.7130 O   0  0  0  0  0  0  0  0  0  0  0  0
   25.1663   14.7850   -7.6126 H   0  0  0  0  0  0  0  0  0  0  0  0
   29.2180   14.4229   -9.0303 H   0  0  0  0  0  0  0  0  0  0  0  0
   25.6547   11.0873  -10.8082 H   0  0  0  0  0  0  0  0  0  0  0  0
   25.1246    9.9364   -8.4598 H   0  0  0  0  0  0  0  0  0  0  0  0
   28.1971   10.0287   -8.8656 H   0  0  0  0  0  0  0  0  0  0  0  0
   27.2365   10.5908   -7.4234 H   0  0  0  0  0  0  0  0  0  0  0  0
   28.5078    8.5028   -7.0622 H   0  0  0  0  0  0  0  0  0  0  0  0
   26.7236    8.3763   -6.8130 H   0  0  0  0  0  0  0  0  0  0  0  0
   26.0260    6.4941   -9.6957 H   0  0  0  0  0  0  0  0  0  0  0  0
   25.3926    7.3275   -8.2441 H   0  0  0  0  0  0  0  0  0  0  0  0
   24.8678    8.5878  -10.2965 H   0  0  0  0  0  0  0  0  0  0  0  0
   26.6455    8.6537  -10.6813 H   0  0  0  0  0  0  0  0  0  0  0  0
   28.2886   15.8395   -6.8989 H   0  0  0  0  0  0  0  0  0  0  0  0
   25.5398   17.1551   -8.2462 H   0  0  0  0  0  0  0  0  0  0  0  0
   25.3321   19.3942   -9.3170 H   0  0  0  0  0  0  0  0  0  0  0  0
   27.3802   20.5638  -10.0003 H   0  0  0  0  0  0  0  0  0  0  0  0
   29.8320   17.3844   -8.6005 H   0  0  0  0  0  0  0  0  0  0  0  0
  1  2  2  0
  1  5  1  0
  2  3  1  0
  3  7  1  0
  3  4  2  0
  4  6  1  0
  5  6  2  0
  5 14  1  0
  7  8  1  0
  8 13  1  0
  8  9  1  0
  9 10  1  0
 10 11  1  0
 11 12  1  0
 12 13  1  0
 14 15  1  0
 15 20  2  0
 15 16  1  0
 16 17  2  0
 17 18  1  0
 18 19  1  0
 19 21  2  0
 19 20  1  0
  1 22  1  0
  6 23  1  0
  7 24  1  0
  8 25  1  1
  9 26  1  6
  9 27  1  0
 10 28  1  1
 10 29  1  0
 12 30  1  6
 12 31  1  0
 13 32  1  6
 13 33  1  0
 14 34  1  0
 16 35  1  0
 17 36  1  0
 18 37  1  0
 20 38  1  0
M  END
>  <Pose ID>  (123)
212

>  <Score>  (123)
-6.23392391204834

>  <smiles>  (123)
O=c1cc(Nc2cnc(NC3CCOCC3)nc2)cc[nH]1

$$$$

     RDKit          3D

 41 43  0  0  0  0  0  0  0  0999 V2000
   26.4050   14.3140   -8.0580 C   0  0  0  0  0  0  0  0  0  0  0  0
   25.8860   13.0920   -8.4540 N   0  0  0  0  0  0  0  0  0  0  0  0
   26.5510   12.3330   -9.4070 C   0  0  0  0  0  0  0  0  0  0  0  0
   27.7370   12.8010   -9.9640 N   0  0  0  0  0  0  0  0  0  0  0  0
   27.5890   14.7830   -8.6100 C   0  0  0  0  0  0  0  0  0  0  0  0
   28.2540   14.0260   -9.5660 C   0  0  0  0  0  0  0  0  0  0  0  0
   25.8490   11.1720   -9.6310 N   0  0  0  0  0  0  0  0  0  0  0  0
   26.0560    9.9760   -8.8600 C   0  0  2  0  0  0  0  0  0  0  0  0
   27.5730    9.8850   -8.4870 C   0  0  1  0  0  0  0  0  0  0  0  0
   27.9440    8.5740   -7.8990 C   0  0  1  0  0  0  0  0  0  0  0  0
   27.5240    7.4910   -8.7570 O   0  0  0  0  0  0  0  0  0  0  0  0
   26.0870    7.4680   -8.8110 C   0  0  1  0  0  0  0  0  0  0  0  0
   25.6130    8.7080   -9.5340 C   0  0  1  0  0  0  0  0  0  0  0  0
   28.2930   15.9410   -8.3800 N   0  0  0  0  0  0  0  0  0  0  0  0
   28.0640   17.1670   -8.9370 C   0  0  0  0  0  0  0  0  0  0  0  0
   29.0170   17.8280   -9.7030 C   0  0  0  0  0  0  0  0  0  0  0  0
   28.7250   19.0680  -10.2580 C   0  0  0  0  0  0  0  0  0  0  0  0
   27.4800   19.6480  -10.0470 C   0  0  0  0  0  0  0  0  0  0  0  0
   26.5270   18.9870   -9.2800 C   0  0  0  0  0  0  0  0  0  0  0  0
   26.8110   17.7330   -8.7510 C   0  0  0  0  0  0  0  0  0  0  0  0
   29.5380   14.5350  -10.1720 C   0  0  1  0  0  0  0  0  0  0  0  0
   25.8767   14.9149   -7.3032 H   0  0  0  0  0  0  0  0  0  0  0  0
   25.1451   11.1585  -10.3829 H   0  0  0  0  0  0  0  0  0  0  0  0
   25.4204   10.0601   -7.9662 H   0  0  0  0  0  0  0  0  0  0  0  0
   28.1688   10.0425   -9.3981 H   0  0  0  0  0  0  0  0  0  0  0  0
   27.7740   10.6563   -7.7289 H   0  0  0  0  0  0  0  0  0  0  0  0
   29.0359    8.5314   -7.7723 H   0  0  0  0  0  0  0  0  0  0  0  0
   27.4418    8.4687   -6.9260 H   0  0  0  0  0  0  0  0  0  0  0  0
   25.7506    6.5716   -9.3525 H   0  0  0  0  0  0  0  0  0  0  0  0
   25.6724    7.4447   -7.7924 H   0  0  0  0  0  0  0  0  0  0  0  0
   24.5137    8.6949   -9.5720 H   0  0  0  0  0  0  0  0  0  0  0  0
   26.0544    8.6949  -10.5415 H   0  0  0  0  0  0  0  0  0  0  0  0
   29.0779   15.8774   -7.7160 H   0  0  0  0  0  0  0  0  0  0  0  0
   30.0028   17.3693   -9.8699 H   0  0  0  0  0  0  0  0  0  0  0  0
   29.4795   19.5905  -10.8644 H   0  0  0  0  0  0  0  0  0  0  0  0
   27.2485   20.6295  -10.4865 H   0  0  0  0  0  0  0  0  0  0  0  0
   25.5497   19.4556   -9.0920 H   0  0  0  0  0  0  0  0  0  0  0  0
   26.0412   17.1888   -8.1842 H   0  0  0  0  0  0  0  0  0  0  0  0
   30.2375   14.8123   -9.3696 H   0  0  0  0  0  0  0  0  0  0  0  0
   29.9874   13.7470  -10.7942 H   0  0  0  0  0  0  0  0  0  0  0  0
   29.3255   15.4169  -10.7942 H   0  0  0  0  0  0  0  0  0  0  0  0
  1  5  2  0
  1  2  1  0
  2  3  2  0
  3  4  1  0
  3  7  1  0
  4  6  2  0
  5  6  1  0
  5 14  1  0
  6 21  1  0
  7  8  1  0
  8 13  1  0
  8  9  1  0
  9 10  1  0
 10 11  1  0
 11 12  1  0
 12 13  1  0
 14 15  1  0
 15 16  2  0
 15 20  1  0
 16 17  1  0
 17 18  2  0
 18 19  1  0
 19 20  2  0
  1 22  1  0
  7 23  1  0
  8 24  1  1
  9 25  1  6
  9 26  1  0
 10 27  1  1
 10 28  1  0
 12 29  1  6
 12 30  1  0
 13 31  1  6
 13 32  1  0
 14 33  1  0
 16 34  1  0
 17 35  1  0
 18 36  1  0
 19 37  1  0
 20 38  1  0
 21 39  1  1
 21 40  1  0
 21 41  1  0
M  END
>  <Pose ID>  (124)
182

>  <Score>  (124)
-6.228811740875244

>  <smiles>  (124)
Cc1nc(NC2CCOCC2)ncc1Nc1ccccc1

$$$$

     RDKit          3D

 36 38  0  0  0  0  0  0  0  0999 V2000
   23.9920   13.4500   -8.2160 C   0  0  0  0  0  0  0  0  0  0  0  0
   24.0520   12.1150   -8.5810 N   0  0  0  0  0  0  0  0  0  0  0  0
   25.0660   11.6700   -9.4180 C   0  0  0  0  0  0  0  0  0  0  0  0
   26.0200   12.5650   -9.8900 N   0  0  0  0  0  0  0  0  0  0  0  0
   24.9460   14.3460   -8.6820 C   0  0  0  0  0  0  0  0  0  0  0  0
   25.9590   13.9010   -9.5220 C   0  0  0  0  0  0  0  0  0  0  0  0
   24.9150   10.3200   -9.6350 N   0  0  0  0  0  0  0  0  0  0  0  0
   25.4940    9.3240   -8.7760 C   0  0  2  0  0  0  0  0  0  0  0  0
   26.8680    9.8590   -8.2560 C   0  0  1  0  0  0  0  0  0  0  0  0
   27.6620    8.8190   -7.5550 C   0  0  1  0  0  0  0  0  0  0  0  0
   27.8070    7.6430   -8.3810 O   0  0  0  0  0  0  0  0  0  0  0  0
   26.5140    7.0430   -8.5680 C   0  0  1  0  0  0  0  0  0  0  0  0
   25.6690    7.9720   -9.4060 C   0  0  1  0  0  0  0  0  0  0  0  0
   25.0990   15.6880   -8.4610 N   0  0  0  0  0  0  0  0  0  0  0  0
   25.0840   16.6480   -9.4340 C   0  0  0  0  0  0  0  0  0  0  0  0
   25.2300   17.8020   -8.7890 C   0  0  0  0  0  0  0  0  0  0  0  0
   25.0620   16.1330   -7.1010 N   0  0  0  0  0  0  0  0  0  0  0  0
   25.0240   17.4540   -7.2830 C   0  0  0  0  0  0  0  0  0  0  0  0
   24.8100   18.4680   -6.1870 C   0  0  1  0  0  0  0  0  0  0  0  0
   23.1863   13.8018   -7.5549 H   0  0  0  0  0  0  0  0  0  0  0  0
   26.7135   14.6088   -9.8957 H   0  0  0  0  0  0  0  0  0  0  0  0
   24.3635   10.0099  -10.4477 H   0  0  0  0  0  0  0  0  0  0  0  0
   24.7821    9.1618   -7.9533 H   0  0  0  0  0  0  0  0  0  0  0  0
   27.4498   10.2263   -9.1143 H   0  0  0  0  0  0  0  0  0  0  0  0
   26.6589   10.6603   -7.5319 H   0  0  0  0  0  0  0  0  0  0  0  0
   28.6588    9.2217   -7.3223 H   0  0  0  0  0  0  0  0  0  0  0  0
   27.1377    8.5383   -6.6296 H   0  0  0  0  0  0  0  0  0  0  0  0
   26.6245    6.0771   -9.0825 H   0  0  0  0  0  0  0  0  0  0  0  0
   26.0333    6.8742   -7.5931 H   0  0  0  0  0  0  0  0  0  0  0  0
   24.6770    7.5171   -9.5439 H   0  0  0  0  0  0  0  0  0  0  0  0
   26.1871    8.1174  -10.3654 H   0  0  0  0  0  0  0  0  0  0  0  0
   24.9746   16.4982  -10.5182 H   0  0  0  0  0  0  0  0  0  0  0  0
   25.4487   18.7884   -9.2238 H   0  0  0  0  0  0  0  0  0  0  0  0
   24.9136   17.9772   -5.2080 H   0  0  0  0  0  0  0  0  0  0  0  0
   25.5590   19.2686   -6.2768 H   0  0  0  0  0  0  0  0  0  0  0  0
   23.8014   18.8977   -6.2768 H   0  0  0  0  0  0  0  0  0  0  0  0
  1  5  2  0
  1  2  1  0
  2  3  2  0
  3  4  1  0
  3  7  1  0
  4  6  2  0
  5  6  1  0
  5 14  1  0
  7  8  1  0
  8 13  1  0
  8  9  1  0
  9 10  1  0
 10 11  1  0
 11 12  1  0
 12 13  1  0
 14 15  1  0
 14 17  1  0
 15 16  2  0
 16 18  1  0
 17 18  2  0
 18 19  1  0
  1 20  1  0
  6 21  1  0
  7 22  1  0
  8 23  1  1
  9 24  1  6
  9 25  1  0
 10 26  1  1
 10 27  1  0
 12 28  1  6
 12 29  1  0
 13 30  1  6
 13 31  1  0
 15 32  1  0
 16 33  1  0
 19 34  1  1
 19 35  1  0
 19 36  1  0
M  END
>  <Pose ID>  (125)
255

>  <Score>  (125)
-6.181213855743408

>  <smiles>  (125)
Cc1ccn(-c2cnc(NC3CCOCC3)nc2)n1

$$$$

     RDKit          3D

 40 42  0  0  0  0  0  0  0  0999 V2000
   27.4630    8.3610  -10.1140 C   0  0  0  0  0  0  0  0  0  0  0  0
   27.3040    7.1750   -9.4120 N   0  0  0  0  0  0  0  0  0  0  0  0
   26.4100    7.1090   -8.3510 C   0  0  0  0  0  0  0  0  0  0  0  0
   25.6720    8.2310   -7.9910 N   0  0  0  0  0  0  0  0  0  0  0  0
   28.3130    8.3370  -11.0530 N   0  0  0  0  0  0  0  0  0  0  0  0
   25.8310    9.4190   -8.6940 C   0  0  0  0  0  0  0  0  0  0  0  0
   26.7170    9.4740   -9.7710 C   0  0  0  0  0  0  0  0  0  0  0  0
   28.4930    9.4390  -11.7760 C   0  0  0  0  0  0  0  0  0  0  0  0
   29.6870   10.1500  -11.7290 N   0  0  0  0  0  0  0  0  0  0  0  0
   29.8450   11.2970  -12.5000 C   0  0  0  0  0  0  0  0  0  0  0  0
   28.8060   11.7320  -13.3170 C   0  0  0  0  0  0  0  0  0  0  0  0
   27.6140   11.0230  -13.3630 C   0  0  0  0  0  0  0  0  0  0  0  0
   27.4700    9.8590  -12.6110 C   0  0  0  0  0  0  0  0  0  0  0  0
   29.2240    7.3000  -11.5770 C   0  0  1  0  0  0  0  0  0  0  0  0
   28.9620   12.8690  -14.0780 O   0  0  0  0  0  0  0  0  0  0  0  0
   30.0730   13.7430  -13.9160 C   0  0  1  0  0  0  0  0  0  0  0  0
   25.0480   10.6450   -8.2950 C   0  0  1  0  0  0  0  0  0  0  0  0
   25.8850   11.6460   -7.4790 C   0  0  0  0  0  0  0  0  0  0  0  0
   26.2430   11.3230   -6.1760 C   0  0  0  0  0  0  0  0  0  0  0  0
   26.9610   12.2320   -5.4070 N   0  0  0  0  0  0  0  0  0  0  0  0
   27.3210   13.4630   -5.9430 C   0  0  0  0  0  0  0  0  0  0  0  0
   26.9630   13.7850   -7.2470 C   0  0  0  0  0  0  0  0  0  0  0  0
   26.2340   12.8670   -8.0120 C   0  0  0  0  0  0  0  0  0  0  0  0
   26.2857    6.1680   -7.7950 H   0  0  0  0  0  0  0  0  0  0  0  0
   26.8222   10.4045  -10.3482 H   0  0  0  0  0  0  0  0  0  0  0  0
   30.7898   11.8592  -12.4639 H   0  0  0  0  0  0  0  0  0  0  0  0
   26.7847   11.3792  -13.9918 H   0  0  0  0  0  0  0  0  0  0  0  0
   26.5422    9.2721  -12.6803 H   0  0  0  0  0  0  0  0  0  0  0  0
   29.6932    6.7659  -10.7376 H   0  0  0  0  0  0  0  0  0  0  0  0
   28.6540    6.5880  -12.1919 H   0  0  0  0  0  0  0  0  0  0  0  0
   30.0035    7.7735  -12.1919 H   0  0  0  0  0  0  0  0  0  0  0  0
   30.2665   13.8952  -12.8439 H   0  0  0  0  0  0  0  0  0  0  0  0
   30.9610   13.2988  -14.3894 H   0  0  0  0  0  0  0  0  0  0  0  0
   29.8504   14.7106  -14.3894 H   0  0  0  0  0  0  0  0  0  0  0  0
   24.6907   11.1462   -9.2066 H   0  0  0  0  0  0  0  0  0  0  0  0
   24.2141   10.3136   -7.6588 H   0  0  0  0  0  0  0  0  0  0  0  0
   25.9585   10.3483   -5.7529 H   0  0  0  0  0  0  0  0  0  0  0  0
   27.8893   14.1824   -5.3352 H   0  0  0  0  0  0  0  0  0  0  0  0
   27.2511   14.7563   -7.6755 H   0  0  0  0  0  0  0  0  0  0  0  0
   25.9393   13.1213   -9.0408 H   0  0  0  0  0  0  0  0  0  0  0  0
  1  5  1  0
  1  7  1  0
  1  2  2  0
  2  3  1  0
  3  4  2  0
  4  6  1  0
  5  8  1  0
  5 14  1  0
  6  7  2  0
  6 17  1  0
  8 13  1  0
  8  9  2  0
  9 10  1  0
 10 11  2  0
 11 15  1  0
 11 12  1  0
 12 13  2  0
 15 16  1  0
 17 18  1  0
 18 23  1  0
 18 19  2  0
 19 20  1  0
 20 21  2  0
 21 22  1  0
 22 23  2  0
  3 24  1  0
  7 25  1  0
 10 26  1  0
 12 27  1  0
 13 28  1  0
 14 29  1  1
 14 30  1  0
 14 31  1  0
 16 32  1  1
 16 33  1  0
 16 34  1  0
 17 35  1  6
 17 36  1  0
 19 37  1  0
 21 38  1  0
 22 39  1  0
 23 40  1  0
M  END
>  <Pose ID>  (126)
174

>  <Score>  (126)
-6.181087493896484

>  <smiles>  (126)
COc1ccc(N(C)c2cc(Cc3cccnc3)ncn2)nc1

$$$$

     RDKit          3D

 41 43  0  0  0  0  0  0  0  0999 V2000
   26.3940   14.3230   -8.0710 C   0  0  0  0  0  0  0  0  0  0  0  0
   25.8780   13.1050   -8.4830 N   0  0  0  0  0  0  0  0  0  0  0  0
   26.5500   12.3550   -9.4390 C   0  0  0  0  0  0  0  0  0  0  0  0
   27.7410   12.8290   -9.9820 N   0  0  0  0  0  0  0  0  0  0  0  0
   27.5820   14.7970   -8.6090 C   0  0  0  0  0  0  0  0  0  0  0  0
   28.2550   14.0500   -9.5680 C   0  0  0  0  0  0  0  0  0  0  0  0
   25.8500   11.1970   -9.6800 N   0  0  0  0  0  0  0  0  0  0  0  0
   26.0510    9.9930   -8.9190 C   0  0  2  0  0  0  0  0  0  0  0  0
   27.5660    9.8980   -8.5360 C   0  0  1  0  0  0  0  0  0  0  0  0
   27.9320    8.5810   -7.9590 C   0  0  1  0  0  0  0  0  0  0  0  0
   27.5190    7.5070   -8.8310 O   0  0  0  0  0  0  0  0  0  0  0  0
   26.0820    7.4850   -8.8960 C   0  0  1  0  0  0  0  0  0  0  0  0
   25.6130    8.7320   -9.6100 C   0  0  1  0  0  0  0  0  0  0  0  0
   28.2850   15.9530   -8.3620 N   0  0  0  0  0  0  0  0  0  0  0  0
   28.0600   17.1840   -8.9080 C   0  0  0  0  0  0  0  0  0  0  0  0
   29.0190   17.8530   -9.6600 C   0  0  0  0  0  0  0  0  0  0  0  0
   28.7310   19.0990  -10.2050 C   0  0  0  0  0  0  0  0  0  0  0  0
   27.4840   19.6770   -9.9980 C   0  0  0  0  0  0  0  0  0  0  0  0
   26.5250   19.0080   -9.2450 C   0  0  0  0  0  0  0  0  0  0  0  0
   26.8050   17.7490   -8.7260 C   0  0  0  0  0  0  0  0  0  0  0  0
   25.2350   10.1250   -7.6010 C   0  0  1  0  0  0  0  0  0  0  0  0
   25.8598   14.9166   -7.3145 H   0  0  0  0  0  0  0  0  0  0  0  0
   29.1946   14.4261   -9.9989 H   0  0  0  0  0  0  0  0  0  0  0  0
   25.1521   11.1911  -10.4375 H   0  0  0  0  0  0  0  0  0  0  0  0
   28.1684   10.0647   -9.4412 H   0  0  0  0  0  0  0  0  0  0  0  0
   27.7620   10.6615   -7.7688 H   0  0  0  0  0  0  0  0  0  0  0  0
   29.0228    8.5369   -7.8241 H   0  0  0  0  0  0  0  0  0  0  0  0
   27.4217    8.4657   -6.9914 H   0  0  0  0  0  0  0  0  0  0  0  0
   25.7495    6.5941   -9.4489 H   0  0  0  0  0  0  0  0  0  0  0  0
   25.6601    7.4519   -7.8807 H   0  0  0  0  0  0  0  0  0  0  0  0
   24.5141    8.7192   -9.6564 H   0  0  0  0  0  0  0  0  0  0  0  0
   26.0615    8.7294  -10.6144 H   0  0  0  0  0  0  0  0  0  0  0  0
   29.0651   15.8825   -7.6932 H   0  0  0  0  0  0  0  0  0  0  0  0
   30.0062   17.3962   -9.8238 H   0  0  0  0  0  0  0  0  0  0  0  0
   29.4901   19.6276  -10.8002 H   0  0  0  0  0  0  0  0  0  0  0  0
   27.2558   20.6628  -10.4294 H   0  0  0  0  0  0  0  0  0  0  0  0
   25.5461   19.4745   -9.0603 H   0  0  0  0  0  0  0  0  0  0  0  0
   26.0309   17.1996   -8.1702 H   0  0  0  0  0  0  0  0  0  0  0  0
   25.9100   10.0158   -6.7393 H   0  0  0  0  0  0  0  0  0  0  0  0
   24.7524   11.1129   -7.5659 H   0  0  0  0  0  0  0  0  0  0  0  0
   24.4656    9.3396   -7.5659 H   0  0  0  0  0  0  0  0  0  0  0  0
  1  5  2  0
  1  2  1  0
  2  3  2  0
  3  4  1  0
  3  7  1  0
  4  6  2  0
  5  6  1  0
  5 14  1  0
  8  7  1  6
  8 13  1  0
  8  9  1  0
  8 21  1  0
  9 10  1  0
 10 11  1  0
 11 12  1  0
 12 13  1  0
 14 15  1  0
 15 16  2  0
 15 20  1  0
 16 17  1  0
 17 18  2  0
 18 19  1  0
 19 20  2  0
  1 22  1  0
  6 23  1  0
  7 24  1  0
  9 25  1  6
  9 26  1  0
 10 27  1  1
 10 28  1  0
 12 29  1  6
 12 30  1  0
 13 31  1  6
 13 32  1  0
 14 33  1  0
 16 34  1  0
 17 35  1  0
 18 36  1  0
 19 37  1  0
 20 38  1  0
 21 39  1  1
 21 40  1  0
 21 41  1  0
M  END
>  <Pose ID>  (127)
183

>  <Score>  (127)
-6.166900157928467

>  <smiles>  (127)
CC1(Nc2ncc(Nc3ccccc3)cn2)CCOCC1

$$$$

     RDKit          3D

 24 25  0  0  0  0  0  0  0  0999 V2000
   27.7460    8.4900  -10.2810 C   0  0  0  0  0  0  0  0  0  0  0  0
   27.4890    7.2160   -9.7890 N   0  0  0  0  0  0  0  0  0  0  0  0
   26.6080    7.0430   -8.7290 C   0  0  0  0  0  0  0  0  0  0  0  0
   25.9830    8.1470   -8.1590 C   0  0  0  0  0  0  0  0  0  0  0  0
   27.1210    9.5910   -9.7090 C   0  0  0  0  0  0  0  0  0  0  0  0
   26.2630    9.4370   -8.6590 C   0  0  0  0  0  0  0  0  0  0  0  0
   28.6390    8.4020  -11.3210 N   0  0  0  0  0  0  0  0  0  0  0  0
   29.0750    9.6370  -11.9670 C   0  0  0  0  0  0  0  0  0  0  0  0
   30.4390    9.9010  -11.9840 N   0  0  0  0  0  0  0  0  0  0  0  0
   30.9180   11.0500  -12.6020 C   0  0  0  0  0  0  0  0  0  0  0  0
   30.0310   11.9350  -13.2030 C   0  0  0  0  0  0  0  0  0  0  0  0
   28.6660   11.6720  -13.1870 C   0  0  0  0  0  0  0  0  0  0  0  0
   28.1890   10.5230  -12.5690 N   0  0  0  0  0  0  0  0  0  0  0  0
   30.5500   13.1830  -13.8730 C   0  0  1  0  0  0  0  0  0  0  0  0
   26.4049    6.0340   -8.3409 H   0  0  0  0  0  0  0  0  0  0  0  0
   25.2767    8.0160   -7.3259 H   0  0  0  0  0  0  0  0  0  0  0  0
   27.3198   10.5972  -10.1065 H   0  0  0  0  0  0  0  0  0  0  0  0
   25.7894   10.3185   -8.2021 H   0  0  0  0  0  0  0  0  0  0  0  0
   28.9923    7.4877  -11.6374 H   0  0  0  0  0  0  0  0  0  0  0  0
   31.9979   11.2586  -12.6154 H   0  0  0  0  0  0  0  0  0  0  0  0
   27.9645   12.3729  -13.6631 H   0  0  0  0  0  0  0  0  0  0  0  0
   30.8530   13.9116  -13.1067 H   0  0  0  0  0  0  0  0  0  0  0  0
   31.4170   12.9288  -14.5004 H   0  0  0  0  0  0  0  0  0  0  0  0
   29.7584   13.6186  -14.5004 H   0  0  0  0  0  0  0  0  0  0  0  0
  1  7  1  0
  1  2  2  0
  1  5  1  0
  2  3  1  0
  3  4  2  0
  4  6  1  0
  5  6  2  0
  7  8  1  0
  8 13  1  0
  8  9  2  0
  9 10  1  0
 10 11  2  0
 11 14  1  0
 11 12  1  0
 12 13  2  0
  3 15  1  0
  4 16  1  0
  5 17  1  0
  6 18  1  0
  7 19  1  0
 10 20  1  0
 12 21  1  0
 14 22  1  1
 14 23  1  0
 14 24  1  0
M  END
>  <Pose ID>  (128)
52

>  <Score>  (128)
-6.157407283782959

>  <smiles>  (128)
Cc1cnc(Nc2ccccn2)nc1

$$$$

     RDKit          3D

 40 42  0  0  0  0  0  0  0  0999 V2000
   26.3860   14.3240   -8.0900 C   0  0  0  0  0  0  0  0  0  0  0  0
   25.8750   13.1040   -8.5040 N   0  0  0  0  0  0  0  0  0  0  0  0
   26.5580   12.3510   -9.4480 C   0  0  0  0  0  0  0  0  0  0  0  0
   27.7540   12.8220   -9.9800 N   0  0  0  0  0  0  0  0  0  0  0  0
   27.5810   14.7960   -8.6160 C   0  0  0  0  0  0  0  0  0  0  0  0
   28.2640   14.0450   -9.5640 C   0  0  0  0  0  0  0  0  0  0  0  0
   25.8600   11.1920   -9.6930 N   0  0  0  0  0  0  0  0  0  0  0  0
   26.0520    9.9910   -8.9260 C   0  0  2  0  0  0  0  0  0  0  0  0
   27.5620    9.8970   -8.5240 C   0  0  1  0  0  0  0  0  0  0  0  0
   27.9220    8.5830   -7.9370 C   0  0  1  0  0  0  0  0  0  0  0  0
   27.5180    7.5050   -8.8100 O   0  0  0  0  0  0  0  0  0  0  0  0
   26.0820    7.4830   -8.8920 C   0  0  1  0  0  0  0  0  0  0  0  0
   25.6220    8.7270   -9.6160 C   0  0  1  0  0  0  0  0  0  0  0  0
   28.2800   15.9520   -8.3660 N   0  0  0  0  0  0  0  0  0  0  0  0
   28.0480   17.1780   -8.9260 C   0  0  0  0  0  0  0  0  0  0  0  0
   29.0260   17.8420   -9.6560 C   0  0  0  0  0  0  0  0  0  0  0  0
   28.7550   19.0880  -10.2090 C   0  0  0  0  0  0  0  0  0  0  0  0
   27.5040   19.6690  -10.0340 C   0  0  0  0  0  0  0  0  0  0  0  0
   26.5260   19.0040   -9.3030 N   0  0  0  0  0  0  0  0  0  0  0  0
   26.7970   17.7590   -8.7500 C   0  0  0  0  0  0  0  0  0  0  0  0
   25.1670   10.2400   -7.6660 C   0  0  1  0  0  0  0  0  0  0  0  0
   25.8429   14.9204   -7.3421 H   0  0  0  0  0  0  0  0  0  0  0  0
   29.2088   14.4189   -9.9853 H   0  0  0  0  0  0  0  0  0  0  0  0
   25.1706   11.1837  -10.4582 H   0  0  0  0  0  0  0  0  0  0  0  0
   28.1753   10.0600   -9.4225 H   0  0  0  0  0  0  0  0  0  0  0  0
   27.7479   10.6634   -7.7571 H   0  0  0  0  0  0  0  0  0  0  0  0
   29.0113    8.5396   -7.7901 H   0  0  0  0  0  0  0  0  0  0  0  0
   27.4019    8.4717   -6.9741 H   0  0  0  0  0  0  0  0  0  0  0  0
   25.7559    6.5900   -9.4455 H   0  0  0  0  0  0  0  0  0  0  0  0
   25.6480    7.4538   -7.8816 H   0  0  0  0  0  0  0  0  0  0  0  0
   24.5237    8.7142   -9.6750 H   0  0  0  0  0  0  0  0  0  0  0  0
   26.0826    8.7201  -10.6149 H   0  0  0  0  0  0  0  0  0  0  0  0
   29.0550   15.8892   -7.6904 H   0  0  0  0  0  0  0  0  0  0  0  0
   30.0150   17.3815   -9.7963 H   0  0  0  0  0  0  0  0  0  0  0  0
   29.5302   19.6145  -10.7851 H   0  0  0  0  0  0  0  0  0  0  0  0
   27.2882   20.6540  -10.4735 H   0  0  0  0  0  0  0  0  0  0  0  0
   26.0223   17.2328   -8.1730 H   0  0  0  0  0  0  0  0  0  0  0  0
   25.7654   10.0716   -6.7585 H   0  0  0  0  0  0  0  0  0  0  0  0
   24.7990   11.2766   -7.6754 H   0  0  0  0  0  0  0  0  0  0  0  0
   24.3125    9.5474   -7.6754 H   0  0  0  0  0  0  0  0  0  0  0  0
  1  5  2  0
  1  2  1  0
  2  3  2  0
  3  4  1  0
  3  7  1  0
  4  6  2  0
  5  6  1  0
  5 14  1  0
  8  7  1  6
  8 13  1  0
  8  9  1  0
  8 21  1  0
  9 10  1  0
 10 11  1  0
 11 12  1  0
 12 13  1  0
 14 15  1  0
 15 16  2  0
 15 20  1  0
 16 17  1  0
 17 18  2  0
 18 19  1  0
 19 20  2  0
  1 22  1  0
  6 23  1  0
  7 24  1  0
  9 25  1  6
  9 26  1  0
 10 27  1  1
 10 28  1  0
 12 29  1  6
 12 30  1  0
 13 31  1  6
 13 32  1  0
 14 33  1  0
 16 34  1  0
 17 35  1  0
 18 36  1  0
 20 37  1  0
 21 38  1  1
 21 39  1  0
 21 40  1  0
M  END
>  <Pose ID>  (129)
192

>  <Score>  (129)
-6.1518988609313965

>  <smiles>  (129)
CC1(Nc2ncc(Nc3cccnc3)cn2)CCOCC1

$$$$

     RDKit          3D

 41 43  0  0  0  0  0  0  0  0999 V2000
   25.9170   14.0980   -8.1140 C   0  0  0  0  0  0  0  0  0  0  0  0
   25.6170   12.8910   -8.7240 N   0  0  0  0  0  0  0  0  0  0  0  0
   26.5990   12.2080   -9.4280 C   0  0  0  0  0  0  0  0  0  0  0  0
   27.8810   12.7390   -9.5230 N   0  0  0  0  0  0  0  0  0  0  0  0
   27.1960   14.6290   -8.2040 C   0  0  0  0  0  0  0  0  0  0  0  0
   28.1780   13.9490   -8.9110 C   0  0  0  0  0  0  0  0  0  0  0  0
   26.0670   11.0470   -9.9360 N   0  0  0  0  0  0  0  0  0  0  0  0
   26.0510    9.8100   -9.2020 C   0  0  2  0  0  0  0  0  0  0  0  0
   27.3530    9.7340   -8.3370 C   0  0  1  0  0  0  0  0  0  0  0  0
   27.5590    8.3990   -7.7230 C   0  0  1  0  0  0  0  0  0  0  0  0
   27.5050    7.3600   -8.7260 O   0  0  0  0  0  0  0  0  0  0  0  0
   26.1740    7.3060   -9.2690 C   0  0  1  0  0  0  0  0  0  0  0  0
   25.9200    8.5760  -10.0490 C   0  0  1  0  0  0  0  0  0  0  0  0
   27.7280   15.7870   -7.6900 N   0  0  0  0  0  0  0  0  0  0  0  0
   27.6440   17.0430   -8.2200 C   0  0  0  0  0  0  0  0  0  0  0  0
   26.3820   17.5980   -8.4000 C   0  0  0  0  0  0  0  0  0  0  0  0
   26.2530   18.8680   -8.9520 C   0  0  0  0  0  0  0  0  0  0  0  0
   27.3860   19.5810   -9.3260 N   0  0  0  0  0  0  0  0  0  0  0  0
   28.6480   19.0260   -9.1460 C   0  0  0  0  0  0  0  0  0  0  0  0
   28.7770   17.7580   -8.5930 C   0  0  0  0  0  0  0  0  0  0  0  0
   29.6620   19.6650   -9.4800 O   0  0  0  0  0  0  0  0  0  0  0  0
   29.5680   14.5250   -9.0150 C   0  0  1  0  0  0  0  0  0  0  0  0
   25.1380   14.6380   -7.5558 H   0  0  0  0  0  0  0  0  0  0  0  0
   25.6624   11.0634  -10.8830 H   0  0  0  0  0  0  0  0  0  0  0  0
   25.1455    9.8219   -8.5775 H   0  0  0  0  0  0  0  0  0  0  0  0
   28.2159    9.9619   -8.9801 H   0  0  0  0  0  0  0  0  0  0  0  0
   27.2498   10.4621   -7.5190 H   0  0  0  0  0  0  0  0  0  0  0  0
   28.5430    8.3757   -7.2319 H   0  0  0  0  0  0  0  0  0  0  0  0
   26.7604    8.2216   -6.9877 H   0  0  0  0  0  0  0  0  0  0  0  0
   26.0808    6.4364   -9.9361 H   0  0  0  0  0  0  0  0  0  0  0  0
   25.4396    7.2110   -8.4556 H   0  0  0  0  0  0  0  0  0  0  0  0
   24.9010    8.5383  -10.4615 H   0  0  0  0  0  0  0  0  0  0  0  0
   26.6775    8.6358  -10.8443 H   0  0  0  0  0  0  0  0  0  0  0  0
   28.2486   15.6978   -6.8057 H   0  0  0  0  0  0  0  0  0  0  0  0
   25.4855   17.0326   -8.1058 H   0  0  0  0  0  0  0  0  0  0  0  0
   25.2547   19.3080   -9.0926 H   0  0  0  0  0  0  0  0  0  0  0  0
   27.2907   20.5208   -9.7366 H   0  0  0  0  0  0  0  0  0  0  0  0
   29.7756   17.3195   -8.4502 H   0  0  0  0  0  0  0  0  0  0  0  0
   29.9720   14.6924   -8.0057 H   0  0  0  0  0  0  0  0  0  0  0  0
   30.2167   13.8216   -9.5576 H   0  0  0  0  0  0  0  0  0  0  0  0
   29.5291   15.4811   -9.5576 H   0  0  0  0  0  0  0  0  0  0  0  0
  1  2  2  0
  1  5  1  0
  2  3  1  0
  3  7  1  0
  3  4  2  0
  4  6  1  0
  5  6  2  0
  5 14  1  0
  6 22  1  0
  7  8  1  0
  8 13  1  0
  8  9  1  0
  9 10  1  0
 10 11  1  0
 11 12  1  0
 12 13  1  0
 14 15  1  0
 15 20  2  0
 15 16  1  0
 16 17  2  0
 17 18  1  0
 18 19  1  0
 19 21  2  0
 19 20  1  0
  1 23  1  0
  7 24  1  0
  8 25  1  1
  9 26  1  6
  9 27  1  0
 10 28  1  1
 10 29  1  0
 12 30  1  6
 12 31  1  0
 13 32  1  6
 13 33  1  0
 14 34  1  0
 16 35  1  0
 17 36  1  0
 18 37  1  0
 20 38  1  0
 22 39  1  1
 22 40  1  0
 22 41  1  0
M  END
>  <Pose ID>  (130)
215

>  <Score>  (130)
-6.135415554046631

>  <smiles>  (130)
Cc1nc(NC2CCOCC2)ncc1Nc1cc[nH]c(=O)c1

$$$$

     RDKit          3D

 34 37  0  0  0  0  0  0  0  0999 V2000
   28.2790    8.1420  -10.7260 C   0  0  0  0  0  0  0  0  0  0  0  0
   27.7110    7.0430  -10.0910 N   0  0  0  0  0  0  0  0  0  0  0  0
   26.8310    7.2320   -9.0280 C   0  0  0  0  0  0  0  0  0  0  0  0
   26.5220    8.5190   -8.6030 N   0  0  0  0  0  0  0  0  0  0  0  0
   27.0900    9.6170   -9.2370 C   0  0  0  0  0  0  0  0  0  0  0  0
   27.9310    9.4680  -10.2660 C   0  0  0  0  0  0  0  0  0  0  0  0
   26.9490   10.9310   -8.9990 N   0  0  0  0  0  0  0  0  0  0  0  0
   27.6250   11.5670   -9.7920 N   0  0  0  0  0  0  0  0  0  0  0  0
   28.2600   10.7730  -10.6170 C   0  0  0  0  0  0  0  0  0  0  0  0
   29.1140   11.1690  -11.6630 C   0  0  0  0  0  0  0  0  0  0  0  0
   28.8040   12.2580  -12.4670 C   0  0  0  0  0  0  0  0  0  0  0  0
   29.9590   12.3160  -13.4340 C   0  0  0  0  0  0  0  0  0  0  0  0
   30.7000   11.3200  -13.1410 O   0  0  0  0  0  0  0  0  0  0  0  0
   30.2120   10.6210  -12.1500 C   0  0  0  0  0  0  0  0  0  0  0  0
   27.6180   13.1500  -12.3920 C   0  0  0  0  0  0  0  0  0  0  0  0
   26.5960   12.8250  -11.9860 O   0  0  0  0  0  0  0  0  0  0  0  0
   27.7480   14.5810  -12.8880 N   0  0  0  0  0  0  0  0  0  0  0  0
   26.7050   15.4750  -12.6320 C   0  0  2  0  0  0  0  0  0  0  0  0
   27.1260   16.8870  -13.1680 C   0  0  1  0  0  0  0  0  0  0  0  0
   26.5830   17.4780  -11.8240 C   0  0  1  0  0  0  0  0  0  0  0  0
   26.5730   16.0710  -11.3040 C   0  0  1  0  0  0  0  0  0  0  0  0
   28.9800    8.0052  -11.5626 H   0  0  0  0  0  0  0  0  0  0  0  0
   26.3808    6.3634   -8.5251 H   0  0  0  0  0  0  0  0  0  0  0  0
   25.8711    8.6587   -7.8171 H   0  0  0  0  0  0  0  0  0  0  0  0
   30.1274   13.0607  -14.2259 H   0  0  0  0  0  0  0  0  0  0  0  0
   30.6605    9.6916  -11.7691 H   0  0  0  0  0  0  0  0  0  0  0  0
   28.5872   14.8852  -13.4019 H   0  0  0  0  0  0  0  0  0  0  0  0
   25.8601   14.8640  -12.9825 H   0  0  0  0  0  0  0  0  0  0  0  0
   28.2074   17.0159  -13.3229 H   0  0  0  0  0  0  0  0  0  0  0  0
   26.7869   17.2613  -14.1452 H   0  0  0  0  0  0  0  0  0  0  0  0
   27.2763   18.1564  -11.3052 H   0  0  0  0  0  0  0  0  0  0  0  0
   25.6908   18.1204  -11.7870 H   0  0  0  0  0  0  0  0  0  0  0  0
   25.6335   15.8018  -10.7991 H   0  0  0  0  0  0  0  0  0  0  0  0
   27.3066   15.7944  -10.5324 H   0  0  0  0  0  0  0  0  0  0  0  0
 10 11  1  0
 10 14  2  0
 10  9  1  0
 11 12  2  0
 11 15  1  0
 12 13  1  0
 13 14  1  0
  1  6  2  0
  1  2  1  0
  2  3  2  0
  3  4  1  0
  4  5  1  0
  5  6  1  0
  5  7  2  0
  6  9  1  0
  7  8  1  0
  8  9  2  0
 15 17  1  0
 15 16  2  0
 17 18  1  0
 18 19  1  0
 18 21  1  0
 19 20  1  0
 20 21  1  0
  1 22  1  0
  3 23  1  0
  4 24  1  0
 12 25  1  0
 14 26  1  0
 17 27  1  0
 18 28  1  6
 19 29  1  1
 19 30  1  0
 20 31  1  1
 20 32  1  0
 21 33  1  1
 21 34  1  0
M  END
>  <Pose ID>  (131)
127

>  <Score>  (131)
-6.122376918792725

>  <smiles>  (131)
O=C(NC1CCC1)c1cocc1-c1nnc2[nH]cncc1-2

$$$$

     RDKit          3D

 35 37  0  0  0  0  0  0  0  0999 V2000
   26.4480    7.0450   -8.4020 C   0  0  0  0  0  0  0  0  0  0  0  0
   27.1750    7.3190   -9.5530 N   0  0  0  0  0  0  0  0  0  0  0  0
   27.1780    8.6020  -10.0830 C   0  0  0  0  0  0  0  0  0  0  0  0
   27.9750    8.5240  -11.1950 N   0  0  0  0  0  0  0  0  0  0  0  0
   25.7260    8.0550   -7.7800 N   0  0  0  0  0  0  0  0  0  0  0  0
   25.7280    9.3390   -8.3100 C   0  0  0  0  0  0  0  0  0  0  0  0
   26.4570    9.6140   -9.4630 C   0  0  0  0  0  0  0  0  0  0  0  0
   28.1680    9.7800  -11.9090 C   0  0  0  0  0  0  0  0  0  0  0  0
   29.4040   10.2580  -12.3290 N   0  0  0  0  0  0  0  0  0  0  0  0
   29.4880   11.4670  -13.0090 C   0  0  0  0  0  0  0  0  0  0  0  0
   28.3370   12.2000  -13.2680 C   0  0  0  0  0  0  0  0  0  0  0  0
   27.0990   11.7250  -12.8480 C   0  0  0  0  0  0  0  0  0  0  0  0
   27.0140   10.4990  -12.1930 C   0  0  0  0  0  0  0  0  0  0  0  0
   26.4610   10.8880   -9.9870 O   0  0  0  0  0  0  0  0  0  0  0  0
   25.8040   11.8770   -9.4340 C   0  0  0  0  0  0  0  0  0  0  0  0
   26.4480   12.9440   -8.8210 C   0  0  0  0  0  0  0  0  0  0  0  0
   25.7050   13.9670   -8.2450 C   0  0  0  0  0  0  0  0  0  0  0  0
   24.3160   13.9240   -8.2830 C   0  0  0  0  0  0  0  0  0  0  0  0
   23.6720   12.8560   -8.8960 C   0  0  0  0  0  0  0  0  0  0  0  0
   24.3920   11.8450   -9.5040 C   0  0  0  0  0  0  0  0  0  0  0  0
   27.9560   12.9910   -8.7800 C   0  0  1  0  0  0  0  0  0  0  0  0
   26.4441    6.0279   -7.9830 H   0  0  0  0  0  0  0  0  0  0  0  0
   28.4066    7.6413  -11.5040 H   0  0  0  0  0  0  0  0  0  0  0  0
   25.1536   10.1380   -7.8185 H   0  0  0  0  0  0  0  0  0  0  0  0
   30.4663   11.8436  -13.3422 H   0  0  0  0  0  0  0  0  0  0  0  0
   28.4046   13.1572  -13.8058 H   0  0  0  0  0  0  0  0  0  0  0  0
   26.1898   12.3160  -13.0327 H   0  0  0  0  0  0  0  0  0  0  0  0
   26.0318   10.0995  -11.9002 H   0  0  0  0  0  0  0  0  0  0  0  0
   26.2159   14.8111   -7.7588 H   0  0  0  0  0  0  0  0  0  0  0  0
   23.7274   14.7344   -7.8284 H   0  0  0  0  0  0  0  0  0  0  0  0
   22.5728   12.8146   -8.8973 H   0  0  0  0  0  0  0  0  0  0  0  0
   23.8760   11.0301  -10.0328 H   0  0  0  0  0  0  0  0  0  0  0  0
   28.2942   13.0015   -7.7333 H   0  0  0  0  0  0  0  0  0  0  0  0
   28.3644   12.1051   -9.2884 H   0  0  0  0  0  0  0  0  0  0  0  0
   28.3085   13.9006   -9.2884 H   0  0  0  0  0  0  0  0  0  0  0  0
  1  2  2  0
  1  5  1  0
  2  3  1  0
  3  4  1  0
  3  7  2  0
  5  6  2  0
  6  7  1  0
  7 14  1  0
  4  8  1  0
  8  9  2  0
  8 13  1  0
  9 10  1  0
 10 11  2  0
 11 12  1  0
 12 13  2  0
 14 15  1  0
 15 20  1  0
 15 16  2  0
 16 21  1  0
 16 17  1  0
 17 18  2  0
 18 19  1  0
 19 20  2  0
  1 22  1  0
  4 23  1  0
  6 24  1  0
 10 25  1  0
 11 26  1  0
 12 27  1  0
 13 28  1  0
 17 29  1  0
 18 30  1  0
 19 31  1  0
 20 32  1  0
 21 33  1  1
 21 34  1  0
 21 35  1  0
M  END
>  <Pose ID>  (132)
106

>  <Score>  (132)
-6.1210551261901855

>  <smiles>  (132)
Cc1ccccc1Oc1cncnc1Nc1ccccn1

$$$$

     RDKit          3D

 18 19  0  0  0  0  0  0  0  0999 V2000
   27.9710    8.0210  -10.4510 C   0  0  0  0  0  0  0  0  0  0  0  0
   27.3920    7.0430   -9.6300 N   0  0  0  0  0  0  0  0  0  0  0  0
   26.2520    7.3780   -8.9110 C   0  0  0  0  0  0  0  0  0  0  0  0
   25.7130    8.6530   -9.0190 N   0  0  0  0  0  0  0  0  0  0  0  0
   27.3430    9.2600  -10.4830 C   0  0  0  0  0  0  0  0  0  0  0  0
   26.3160    9.5910   -9.8460 C   0  0  0  0  0  0  0  0  0  0  0  0
   29.1100    7.8000  -11.2160 N   0  0  0  0  0  0  0  0  0  0  0  0
   29.6200    8.8180  -12.0140 C   0  0  0  0  0  0  0  0  0  0  0  0
   28.9910   10.0570  -12.0470 C   0  0  0  0  0  0  0  0  0  0  0  0
   27.8520   10.2790  -11.2810 C   0  0  0  0  0  0  0  0  0  0  0  0
   29.5430   11.1610  -12.9140 C   0  0  1  0  0  0  0  0  0  0  0  0
   25.7761    6.6333   -8.2560 H   0  0  0  0  0  0  0  0  0  0  0  0
   25.9003   10.6051   -9.9402 H   0  0  0  0  0  0  0  0  0  0  0  0
   30.5216    8.6428  -12.6194 H   0  0  0  0  0  0  0  0  0  0  0  0
   27.3540   11.2595  -11.3061 H   0  0  0  0  0  0  0  0  0  0  0  0
   29.9438   11.9625  -12.2761 H   0  0  0  0  0  0  0  0  0  0  0  0
   30.3472   10.7611  -13.5491 H   0  0  0  0  0  0  0  0  0  0  0  0
   28.7406   11.5644  -13.5491 H   0  0  0  0  0  0  0  0  0  0  0  0
  1  7  1  0
  1  5  1  0
  1  2  2  0
  2  3  1  0
  3  4  2  0
  4  6  1  0
  5 10  1  0
  5  6  2  0
  7  8  2  0
  8  9  1  0
  9 11  1  0
  9 10  2  0
  3 12  1  0
  6 13  1  0
  8 14  1  0
 10 15  1  0
 11 16  1  1
 11 17  1  0
 11 18  1  0
M  END
>  <Pose ID>  (133)
176

>  <Score>  (133)
-6.117872714996338

>  <smiles>  (133)
Cc1cnc2ncncc2c1

$$$$

     RDKit          3D

 41 43  0  0  0  0  0  0  0  0999 V2000
   26.4050   14.3140   -8.0580 C   0  0  0  0  0  0  0  0  0  0  0  0
   25.8860   13.0920   -8.4540 N   0  0  0  0  0  0  0  0  0  0  0  0
   26.5510   12.3330   -9.4070 C   0  0  0  0  0  0  0  0  0  0  0  0
   27.7370   12.8010   -9.9640 N   0  0  0  0  0  0  0  0  0  0  0  0
   27.5890   14.7830   -8.6100 C   0  0  0  0  0  0  0  0  0  0  0  0
   28.2540   14.0260   -9.5660 C   0  0  0  0  0  0  0  0  0  0  0  0
   25.8490   11.1720   -9.6310 N   0  0  0  0  0  0  0  0  0  0  0  0
   26.0560    9.9760   -8.8600 C   0  0  2  0  0  0  0  0  0  0  0  0
   27.5730    9.8850   -8.4870 C   0  0  1  0  0  0  0  0  0  0  0  0
   27.9440    8.5740   -7.8990 C   0  0  1  0  0  0  0  0  0  0  0  0
   27.5240    7.4910   -8.7570 O   0  0  0  0  0  0  0  0  0  0  0  0
   26.0870    7.4680   -8.8110 C   0  0  1  0  0  0  0  0  0  0  0  0
   25.6130    8.7080   -9.5340 C   0  0  1  0  0  0  0  0  0  0  0  0
   28.2930   15.9410   -8.3800 N   0  0  0  0  0  0  0  0  0  0  0  0
   28.0640   17.1670   -8.9370 C   0  0  0  0  0  0  0  0  0  0  0  0
   29.0170   17.8280   -9.7030 C   0  0  0  0  0  0  0  0  0  0  0  0
   28.7250   19.0680  -10.2580 C   0  0  0  0  0  0  0  0  0  0  0  0
   27.4800   19.6480  -10.0470 C   0  0  0  0  0  0  0  0  0  0  0  0
   26.5270   18.9870   -9.2800 C   0  0  0  0  0  0  0  0  0  0  0  0
   26.8110   17.7330   -8.7510 C   0  0  0  0  0  0  0  0  0  0  0  0
   27.1630   20.9940  -10.6500 C   0  0  1  0  0  0  0  0  0  0  0  0
   25.8767   14.9149   -7.3032 H   0  0  0  0  0  0  0  0  0  0  0  0
   29.1905   14.3974  -10.0077 H   0  0  0  0  0  0  0  0  0  0  0  0
   25.1451   11.1585  -10.3829 H   0  0  0  0  0  0  0  0  0  0  0  0
   25.4204   10.0601   -7.9662 H   0  0  0  0  0  0  0  0  0  0  0  0
   28.1688   10.0425   -9.3981 H   0  0  0  0  0  0  0  0  0  0  0  0
   27.7740   10.6563   -7.7289 H   0  0  0  0  0  0  0  0  0  0  0  0
   29.0359    8.5314   -7.7723 H   0  0  0  0  0  0  0  0  0  0  0  0
   27.4418    8.4687   -6.9260 H   0  0  0  0  0  0  0  0  0  0  0  0
   25.7506    6.5716   -9.3525 H   0  0  0  0  0  0  0  0  0  0  0  0
   25.6724    7.4447   -7.7924 H   0  0  0  0  0  0  0  0  0  0  0  0
   24.5137    8.6949   -9.5720 H   0  0  0  0  0  0  0  0  0  0  0  0
   26.0544    8.6949  -10.5415 H   0  0  0  0  0  0  0  0  0  0  0  0
   29.0779   15.8774   -7.7160 H   0  0  0  0  0  0  0  0  0  0  0  0
   30.0028   17.3693   -9.8699 H   0  0  0  0  0  0  0  0  0  0  0  0
   29.4795   19.5905  -10.8644 H   0  0  0  0  0  0  0  0  0  0  0  0
   25.5497   19.4556   -9.0920 H   0  0  0  0  0  0  0  0  0  0  0  0
   26.0412   17.1888   -8.1842 H   0  0  0  0  0  0  0  0  0  0  0  0
   26.9909   21.7246   -9.8459 H   0  0  0  0  0  0  0  0  0  0  0  0
   28.0077   21.3253  -11.2719 H   0  0  0  0  0  0  0  0  0  0  0  0
   26.2592   20.9135  -11.2719 H   0  0  0  0  0  0  0  0  0  0  0  0
  1  5  2  0
  1  2  1  0
  2  3  2  0
  3  4  1  0
  3  7  1  0
  4  6  2  0
  5  6  1  0
  5 14  1  0
  7  8  1  0
  8 13  1  0
  8  9  1  0
  9 10  1  0
 10 11  1  0
 11 12  1  0
 12 13  1  0
 14 15  1  0
 15 16  2  0
 15 20  1  0
 16 17  1  0
 17 18  2  0
 18 21  1  0
 18 19  1  0
 19 20  2  0
  1 22  1  0
  6 23  1  0
  7 24  1  0
  8 25  1  1
  9 26  1  6
  9 27  1  0
 10 28  1  1
 10 29  1  0
 12 30  1  6
 12 31  1  0
 13 32  1  6
 13 33  1  0
 14 34  1  0
 16 35  1  0
 17 36  1  0
 19 37  1  0
 20 38  1  0
 21 39  1  1
 21 40  1  0
 21 41  1  0
M  END
>  <Pose ID>  (134)
184

>  <Score>  (134)
-6.113897323608398

>  <smiles>  (134)
Cc1ccc(Nc2cnc(NC3CCOCC3)nc2)cc1

$$$$

     RDKit          3D

 38 40  0  0  0  0  0  0  0  0999 V2000
   26.4050   14.3140   -8.0580 C   0  0  0  0  0  0  0  0  0  0  0  0
   25.8860   13.0920   -8.4540 N   0  0  0  0  0  0  0  0  0  0  0  0
   26.5510   12.3330   -9.4070 C   0  0  0  0  0  0  0  0  0  0  0  0
   27.7370   12.8010   -9.9640 N   0  0  0  0  0  0  0  0  0  0  0  0
   27.5890   14.7830   -8.6100 C   0  0  0  0  0  0  0  0  0  0  0  0
   28.2540   14.0260   -9.5660 C   0  0  0  0  0  0  0  0  0  0  0  0
   25.8490   11.1720   -9.6310 N   0  0  0  0  0  0  0  0  0  0  0  0
   26.0560    9.9760   -8.8600 C   0  0  2  0  0  0  0  0  0  0  0  0
   27.5730    9.8850   -8.4870 C   0  0  1  0  0  0  0  0  0  0  0  0
   27.9440    8.5740   -7.8990 C   0  0  1  0  0  0  0  0  0  0  0  0
   27.5240    7.4910   -8.7570 O   0  0  0  0  0  0  0  0  0  0  0  0
   26.0870    7.4680   -8.8110 C   0  0  1  0  0  0  0  0  0  0  0  0
   25.6130    8.7080   -9.5340 C   0  0  1  0  0  0  0  0  0  0  0  0
   28.2930   15.9410   -8.3800 N   0  0  0  0  0  0  0  0  0  0  0  0
   28.0640   17.1670   -8.9370 C   0  0  0  0  0  0  0  0  0  0  0  0
   29.0170   17.8280   -9.7030 C   0  0  0  0  0  0  0  0  0  0  0  0
   28.7250   19.0680  -10.2580 C   0  0  0  0  0  0  0  0  0  0  0  0
   27.4800   19.6480  -10.0470 C   0  0  0  0  0  0  0  0  0  0  0  0
   26.5270   18.9870   -9.2800 C   0  0  0  0  0  0  0  0  0  0  0  0
   26.8110   17.7330   -8.7510 C   0  0  0  0  0  0  0  0  0  0  0  0
   25.8767   14.9149   -7.3032 H   0  0  0  0  0  0  0  0  0  0  0  0
   29.1905   14.3974  -10.0077 H   0  0  0  0  0  0  0  0  0  0  0  0
   25.1451   11.1585  -10.3829 H   0  0  0  0  0  0  0  0  0  0  0  0
   25.4204   10.0601   -7.9662 H   0  0  0  0  0  0  0  0  0  0  0  0
   28.1688   10.0425   -9.3981 H   0  0  0  0  0  0  0  0  0  0  0  0
   27.7740   10.6563   -7.7289 H   0  0  0  0  0  0  0  0  0  0  0  0
   29.0359    8.5314   -7.7723 H   0  0  0  0  0  0  0  0  0  0  0  0
   27.4418    8.4687   -6.9260 H   0  0  0  0  0  0  0  0  0  0  0  0
   25.7506    6.5716   -9.3525 H   0  0  0  0  0  0  0  0  0  0  0  0
   25.6724    7.4447   -7.7924 H   0  0  0  0  0  0  0  0  0  0  0  0
   24.5137    8.6949   -9.5720 H   0  0  0  0  0  0  0  0  0  0  0  0
   26.0544    8.6949  -10.5415 H   0  0  0  0  0  0  0  0  0  0  0  0
   29.0779   15.8774   -7.7160 H   0  0  0  0  0  0  0  0  0  0  0  0
   30.0028   17.3693   -9.8699 H   0  0  0  0  0  0  0  0  0  0  0  0
   29.4795   19.5905  -10.8644 H   0  0  0  0  0  0  0  0  0  0  0  0
   27.2485   20.6295  -10.4865 H   0  0  0  0  0  0  0  0  0  0  0  0
   25.5497   19.4556   -9.0920 H   0  0  0  0  0  0  0  0  0  0  0  0
   26.0412   17.1888   -8.1842 H   0  0  0  0  0  0  0  0  0  0  0  0
  1  5  2  0
  1  2  1  0
  2  3  2  0
  3  4  1  0
  3  7  1  0
  4  6  2  0
  5  6  1  0
  5 14  1  0
  7  8  1  0
  8 13  1  0
  8  9  1  0
  9 10  1  0
 10 11  1  0
 11 12  1  0
 12 13  1  0
 14 15  1  0
 15 16  2  0
 15 20  1  0
 16 17  1  0
 17 18  2  0
 18 19  1  0
 19 20  2  0
  1 21  1  0
  6 22  1  0
  7 23  1  0
  8 24  1  1
  9 25  1  6
  9 26  1  0
 10 27  1  1
 10 28  1  0
 12 29  1  6
 12 30  1  0
 13 31  1  6
 13 32  1  0
 14 33  1  0
 16 34  1  0
 17 35  1  0
 18 36  1  0
 19 37  1  0
 20 38  1  0
M  END
>  <Pose ID>  (135)
181

>  <Score>  (135)
-6.092597484588623

>  <smiles>  (135)
c1ccc(Nc2cnc(NC3CCOCC3)nc2)cc1

$$$$

     RDKit          3D

 44 46  0  0  0  0  0  0  0  0999 V2000
   25.9590   14.1870   -8.1580 C   0  0  0  0  0  0  0  0  0  0  0  0
   25.6840   12.9660   -8.7520 N   0  0  0  0  0  0  0  0  0  0  0  0
   26.6940   12.2690   -9.4000 C   0  0  0  0  0  0  0  0  0  0  0  0
   27.9800   12.7970   -9.4560 N   0  0  0  0  0  0  0  0  0  0  0  0
   27.2410   14.7180   -8.2110 C   0  0  0  0  0  0  0  0  0  0  0  0
   28.2500   14.0220   -8.8630 C   0  0  0  0  0  0  0  0  0  0  0  0
   26.1820   11.0950   -9.9020 N   0  0  0  0  0  0  0  0  0  0  0  0
   26.1390    9.8770   -9.1390 C   0  0  2  0  0  0  0  0  0  0  0  0
   27.4050    9.8210   -8.2230 C   0  0  1  0  0  0  0  0  0  0  0  0
   27.5880    8.5000   -7.5710 C   0  0  1  0  0  0  0  0  0  0  0  0
   27.5710    7.4390   -8.5510 O   0  0  0  0  0  0  0  0  0  0  0  0
   26.2640    7.3700   -9.1440 C   0  0  1  0  0  0  0  0  0  0  0  0
   26.0400    8.6220   -9.9620 C   0  0  1  0  0  0  0  0  0  0  0  0
   27.7530   15.8880   -7.7040 N   0  0  0  0  0  0  0  0  0  0  0  0
   27.6740   17.1270   -8.2610 C   0  0  0  0  0  0  0  0  0  0  0  0
   26.4240   17.6730   -8.4920 C   0  0  0  0  0  0  0  0  0  0  0  0
   26.3100   18.9200   -9.1070 C   0  0  0  0  0  0  0  0  0  0  0  0
   27.4560   19.6280   -9.4500 N   0  0  0  0  0  0  0  0  0  0  0  0
   28.7120   19.0850   -9.1980 C   0  0  0  0  0  0  0  0  0  0  0  0
   28.8190   17.8350   -8.6040 C   0  0  0  0  0  0  0  0  0  0  0  0
   29.7370   19.7200   -9.5070 O   0  0  0  0  0  0  0  0  0  0  0  0
   27.2140   20.9670  -10.0800 C   0  0  1  0  0  0  0  0  0  0  0  0
   27.4090   21.0160  -11.5880 C   0  0  1  0  0  0  0  0  0  0  0  0
   25.1587   14.7380   -7.6424 H   0  0  0  0  0  0  0  0  0  0  0  0
   29.2654   14.4425   -8.9095 H   0  0  0  0  0  0  0  0  0  0  0  0
   25.8143   11.0882  -10.8641 H   0  0  0  0  0  0  0  0  0  0  0  0
   25.2111    9.9048   -8.5489 H   0  0  0  0  0  0  0  0  0  0  0  0
   28.2922   10.0354   -8.8369 H   0  0  0  0  0  0  0  0  0  0  0  0
   27.2690   10.5667   -7.4258 H   0  0  0  0  0  0  0  0  0  0  0  0
   28.5532    8.4886   -7.0434 H   0  0  0  0  0  0  0  0  0  0  0  0
   26.7628    8.3389   -6.8617 H   0  0  0  0  0  0  0  0  0  0  0  0
   26.1982    6.4854   -9.7945 H   0  0  0  0  0  0  0  0  0  0  0  0
   25.4980    7.2917   -8.3584 H   0  0  0  0  0  0  0  0  0  0  0  0
   25.0373    8.5741  -10.4118 H   0  0  0  0  0  0  0  0  0  0  0  0
   26.8276    8.6639  -10.7288 H   0  0  0  0  0  0  0  0  0  0  0  0
   28.2506   15.8198   -6.8048 H   0  0  0  0  0  0  0  0  0  0  0  0
   25.5198   17.1238   -8.1907 H   0  0  0  0  0  0  0  0  0  0  0  0
   25.3165   19.3416   -9.3198 H   0  0  0  0  0  0  0  0  0  0  0  0
   29.8115   17.4046   -8.4047 H   0  0  0  0  0  0  0  0  0  0  0  0
   26.1780   21.2645   -9.8606 H   0  0  0  0  0  0  0  0  0  0  0  0
   27.9653   21.6470   -9.6520 H   0  0  0  0  0  0  0  0  0  0  0  0
   28.4530   21.2783  -11.8144 H   0  0  0  0  0  0  0  0  0  0  0  0
   27.1764   20.0315  -12.0200 H   0  0  0  0  0  0  0  0  0  0  0  0
   26.7386   21.7736  -12.0200 H   0  0  0  0  0  0  0  0  0  0  0  0
  1  2  2  0
  1  5  1  0
  2  3  1  0
  3  7  1  0
  3  4  2  0
  4  6  1  0
  5  6  2  0
  5 14  1  0
  7  8  1  0
  8 13  1  0
  8  9  1  0
  9 10  1  0
 10 11  1  0
 11 12  1  0
 12 13  1  0
 14 15  1  0
 15 20  2  0
 15 16  1  0
 16 17  2  0
 17 18  1  0
 18 22  1  0
 18 19  1  0
 19 21  2  0
 19 20  1  0
 22 23  1  0
  1 24  1  0
  6 25  1  0
  7 26  1  0
  8 27  1  1
  9 28  1  6
  9 29  1  0
 10 30  1  1
 10 31  1  0
 12 32  1  6
 12 33  1  0
 13 34  1  6
 13 35  1  0
 14 36  1  0
 16 37  1  0
 17 38  1  0
 20 39  1  0
 22 40  1  6
 22 41  1  0
 23 42  1  1
 23 43  1  0
 23 44  1  0
M  END
>  <Pose ID>  (136)
251

>  <Score>  (136)
-6.087367534637451

>  <smiles>  (136)
CCn1ccc(Nc2cnc(NC3CCOCC3)nc2)cc1=O

$$$$

     RDKit          3D

 23 25  0  0  0  0  0  0  0  0999 V2000
   28.1400    7.6200  -10.4680 C   0  0  0  0  0  0  0  0  0  0  0  0
   27.2370    7.0540   -9.5750 N   0  0  0  0  0  0  0  0  0  0  0  0
   26.2120    7.8200   -9.0410 C   0  0  0  0  0  0  0  0  0  0  0  0
   26.0900    9.1590   -9.3970 N   0  0  0  0  0  0  0  0  0  0  0  0
   26.9920    9.7270  -10.2900 C   0  0  0  0  0  0  0  0  0  0  0  0
   27.9990    8.9960  -10.8250 C   0  0  0  0  0  0  0  0  0  0  0  0
   27.0700   10.9790  -10.7750 N   0  0  0  0  0  0  0  0  0  0  0  0
   28.0730   11.0170  -11.5590 N   0  0  0  0  0  0  0  0  0  0  0  0
   28.6590    9.8650  -11.6250 C   0  0  0  0  0  0  0  0  0  0  0  0
   25.2090    9.8760   -8.6480 C   0  0  0  0  0  0  0  0  0  0  0  0
   25.1020    9.7520   -7.3760 C   0  0  0  0  0  0  0  0  0  0  0  0
   24.3410   10.8410   -9.1650 C   0  0  0  0  0  0  0  0  0  0  0  0
   23.6030   11.2940   -8.0350 C   0  0  0  0  0  0  0  0  0  0  0  0
   24.0940   10.6330   -6.9930 O   0  0  0  0  0  0  0  0  0  0  0  0
   29.8760    9.5440  -12.4560 C   0  0  1  0  0  0  0  0  0  0  0  0
   28.9537    7.0151  -10.8947 H   0  0  0  0  0  0  0  0  0  0  0  0
   25.4967    7.3696   -8.3371 H   0  0  0  0  0  0  0  0  0  0  0  0
   25.6859    9.0871   -6.7226 H   0  0  0  0  0  0  0  0  0  0  0  0
   24.2487   11.1752  -10.2089 H   0  0  0  0  0  0  0  0  0  0  0  0
   22.7930   12.0382   -8.0267 H   0  0  0  0  0  0  0  0  0  0  0  0
   30.7244    9.3202  -11.7926 H   0  0  0  0  0  0  0  0  0  0  0  0
   29.6665    8.6704  -13.0908 H   0  0  0  0  0  0  0  0  0  0  0  0
   30.1247   10.4073  -13.0908 H   0  0  0  0  0  0  0  0  0  0  0  0
  1  6  2  0
  1  2  1  0
  2  3  2  0
  3  4  1  0
  4  5  1  0
  4 10  1  0
  5  6  1  0
  5  7  2  0
  6  9  1  0
  7  8  1  0
  8  9  2  0
  9 15  1  0
 10 12  1  0
 10 11  2  0
 11 14  1  0
 12 13  2  0
 13 14  1  0
  1 16  1  0
  3 17  1  0
 11 18  1  0
 12 19  1  0
 13 20  1  0
 15 21  1  1
 15 22  1  0
 15 23  1  0
M  END
>  <Pose ID>  (137)
261

>  <Score>  (137)
-6.084003925323486

>  <smiles>  (137)
Cc1nnc2n(-c3ccoc3)cncc1-2

$$$$

     RDKit          3D

 27 28  0  0  0  0  0  0  0  0999 V2000
   27.8630    7.4320  -10.7000 C   0  0  0  0  0  0  0  0  0  0  0  0
   27.1530    7.0480   -9.5710 N   0  0  0  0  0  0  0  0  0  0  0  0
   26.4180    7.9850   -8.8560 C   0  0  0  0  0  0  0  0  0  0  0  0
   26.3960    9.3090   -9.2720 C   0  0  0  0  0  0  0  0  0  0  0  0
   25.6080   10.3110   -8.5620 N   0  0  0  0  0  0  0  0  0  0  0  0
   27.8410    8.7570  -11.1160 C   0  0  0  0  0  0  0  0  0  0  0  0
   27.1050    9.6980  -10.4000 C   0  0  0  0  0  0  0  0  0  0  0  0
   26.2530   11.2840   -7.9570 C   0  0  0  0  0  0  0  0  0  0  0  0
   27.4270   11.5700   -8.0170 O   0  0  0  0  0  0  0  0  0  0  0  0
   25.4310   12.2880   -6.9630 C   0  0  0  0  0  0  0  0  0  0  0  0
   24.2800   12.9350   -7.3980 N   0  0  0  0  0  0  0  0  0  0  0  0
   25.9080   12.5060   -5.6770 C   0  0  0  0  0  0  0  0  0  0  0  0
   25.2350   13.3740   -4.8250 N   0  0  0  0  0  0  0  0  0  0  0  0
   23.6070   13.8020   -6.5450 C   0  0  0  0  0  0  0  0  0  0  0  0
   24.0610   14.0190   -5.2730 C   0  0  0  0  0  0  0  0  0  0  0  0
   26.9370   11.9260   -5.2870 O   0  0  0  0  0  0  0  0  0  0  0  0
   23.3100   14.9460   -4.3510 C   0  0  1  0  0  0  0  0  0  0  0  0
   28.4429    6.6874  -11.2651 H   0  0  0  0  0  0  0  0  0  0  0  0
   25.8547    7.6785   -7.9623 H   0  0  0  0  0  0  0  0  0  0  0  0
   24.5797   10.2578   -8.5356 H   0  0  0  0  0  0  0  0  0  0  0  0
   28.4043    9.0628  -12.0100 H   0  0  0  0  0  0  0  0  0  0  0  0
   27.0857   10.7478  -10.7280 H   0  0  0  0  0  0  0  0  0  0  0  0
   25.5900   13.5456   -3.8735 H   0  0  0  0  0  0  0  0  0  0  0  0
   22.7013   14.3182   -6.8960 H   0  0  0  0  0  0  0  0  0  0  0  0
   23.5266   14.6787   -3.3062 H   0  0  0  0  0  0  0  0  0  0  0  0
   23.6256   15.9832   -4.5371 H   0  0  0  0  0  0  0  0  0  0  0  0
   22.2299   14.8524   -4.5371 H   0  0  0  0  0  0  0  0  0  0  0  0
  5  4  1  0
  5  8  1  0
  8  9  2  0
  8 10  1  0
 10 11  2  0
 10 12  1  0
 11 14  1  0
 12 16  2  0
 12 13  1  0
 13 15  1  0
 14 15  2  0
 15 17  1  0
  1  6  2  0
  1  2  1  0
  2  3  2  0
  3  4  1  0
  4  7  2  0
  6  7  1  0
  1 18  1  0
  3 19  1  0
  5 20  1  0
  6 21  1  0
  7 22  1  0
 13 23  1  0
 14 24  1  0
 17 25  1  1
 17 26  1  0
 17 27  1  0
M  END
>  <Pose ID>  (138)
41

>  <Score>  (138)
-6.082959175109863

>  <smiles>  (138)
Cc1cnc(C(=O)Nc2cccnc2)c(=O)[nH]1

$$$$

     RDKit          3D

 44 46  0  0  0  0  0  0  0  0999 V2000
   25.9410   14.1790   -8.1800 C   0  0  0  0  0  0  0  0  0  0  0  0
   25.6720   12.9630   -8.7880 N   0  0  0  0  0  0  0  0  0  0  0  0
   26.6890   12.2690   -9.4270 C   0  0  0  0  0  0  0  0  0  0  0  0
   27.9780   12.7940   -9.4580 N   0  0  0  0  0  0  0  0  0  0  0  0
   27.2260   14.7060   -8.2080 C   0  0  0  0  0  0  0  0  0  0  0  0
   28.2430   14.0120   -8.8500 C   0  0  0  0  0  0  0  0  0  0  0  0
   26.1820   11.1020   -9.9470 N   0  0  0  0  0  0  0  0  0  0  0  0
   26.1230    9.8760   -9.1960 C   0  0  2  0  0  0  0  0  0  0  0  0
   27.3740    9.8090   -8.2600 C   0  0  1  0  0  0  0  0  0  0  0  0
   27.5420    8.4820   -7.6170 C   0  0  1  0  0  0  0  0  0  0  0  0
   27.5380    7.4290   -8.6070 O   0  0  0  0  0  0  0  0  0  0  0  0
   26.2390    7.3700   -9.2210 C   0  0  1  0  0  0  0  0  0  0  0  0
   26.0330    8.6290  -10.0310 C   0  0  1  0  0  0  0  0  0  0  0  0
   27.7340   15.8700   -7.6820 N   0  0  0  0  0  0  0  0  0  0  0  0
   27.6670   17.1140   -8.2290 C   0  0  0  0  0  0  0  0  0  0  0  0
   26.4240   17.6660   -8.4760 C   0  0  0  0  0  0  0  0  0  0  0  0
   26.3230   18.9200   -9.0810 C   0  0  0  0  0  0  0  0  0  0  0  0
   27.4760   19.6270   -9.3990 N   0  0  0  0  0  0  0  0  0  0  0  0
   28.7260   19.0760   -9.1330 C   0  0  0  0  0  0  0  0  0  0  0  0
   28.8210   17.8200   -8.5470 C   0  0  0  0  0  0  0  0  0  0  0  0
   29.7580   19.7100   -9.4180 O   0  0  0  0  0  0  0  0  0  0  0  0
   27.7080   20.8860  -10.0250 C   0  0  1  0  0  0  0  0  0  0  0  0
   24.8570    9.9370   -8.2930 C   0  0  1  0  0  0  0  0  0  0  0  0
   25.1341   14.7288   -7.6734 H   0  0  0  0  0  0  0  0  0  0  0  0
   29.2606   14.4290   -8.8764 H   0  0  0  0  0  0  0  0  0  0  0  0
   25.8295   11.1052  -10.9148 H   0  0  0  0  0  0  0  0  0  0  0  0
   28.2717   10.0260   -8.8575 H   0  0  0  0  0  0  0  0  0  0  0  0
   27.2277   10.5485   -7.4589 H   0  0  0  0  0  0  0  0  0  0  0  0
   28.4982    8.4628   -7.0736 H   0  0  0  0  0  0  0  0  0  0  0  0
   26.7046    8.3174   -6.9230 H   0  0  0  0  0  0  0  0  0  0  0  0
   26.1798    6.4912   -9.8799 H   0  0  0  0  0  0  0  0  0  0  0  0
   25.4606    7.2879   -8.4481 H   0  0  0  0  0  0  0  0  0  0  0  0
   25.0376    8.5887  -10.4975 H   0  0  0  0  0  0  0  0  0  0  0  0
   26.8332    8.6746  -10.7844 H   0  0  0  0  0  0  0  0  0  0  0  0
   28.2176   15.7920   -6.7759 H   0  0  0  0  0  0  0  0  0  0  0  0
   25.5133   17.1165   -8.1955 H   0  0  0  0  0  0  0  0  0  0  0  0
   25.3343   19.3468   -9.3051 H   0  0  0  0  0  0  0  0  0  0  0  0
   29.8087   17.3847   -8.3349 H   0  0  0  0  0  0  0  0  0  0  0  0
   27.8503   21.6580   -9.2544 H   0  0  0  0  0  0  0  0  0  0  0  0
   28.6097   20.8232  -10.6519 H   0  0  0  0  0  0  0  0  0  0  0  0
   26.8431   21.1487  -10.6519 H   0  0  0  0  0  0  0  0  0  0  0  0
   25.1598    9.9224   -7.2356 H   0  0  0  0  0  0  0  0  0  0  0  0
   24.3014   10.8630   -8.5026 H   0  0  0  0  0  0  0  0  0  0  0  0
   24.2150    9.0687   -8.5026 H   0  0  0  0  0  0  0  0  0  0  0  0
  1  2  2  0
  1  5  1  0
  2  3  1  0
  3  7  1  0
  3  4  2  0
  4  6  1  0
  5  6  2  0
  5 14  1  0
  8  7  1  6
  8 13  1  0
  8 23  1  0
  8  9  1  0
  9 10  1  0
 10 11  1  0
 11 12  1  0
 12 13  1  0
 14 15  1  0
 15 20  2  0
 15 16  1  0
 16 17  2  0
 17 18  1  0
 18 22  1  0
 18 19  1  0
 19 21  2  0
 19 20  1  0
  1 24  1  0
  6 25  1  0
  7 26  1  0
  9 27  1  6
  9 28  1  0
 10 29  1  1
 10 30  1  0
 12 31  1  6
 12 32  1  0
 13 33  1  6
 13 34  1  0
 14 35  1  0
 16 36  1  0
 17 37  1  0
 20 38  1  0
 22 39  1  1
 22 40  1  0
 22 41  1  0
 23 42  1  1
 23 43  1  0
 23 44  1  0
M  END
>  <Pose ID>  (139)
249

>  <Score>  (139)
-6.080997467041016

>  <smiles>  (139)
Cn1ccc(Nc2cnc(NC3(C)CCOCC3)nc2)cc1=O

$$$$

     RDKit          3D

 41 43  0  0  0  0  0  0  0  0999 V2000
   26.4040   14.3170   -8.0540 C   0  0  0  0  0  0  0  0  0  0  0  0
   25.8860   13.0950   -8.4530 N   0  0  0  0  0  0  0  0  0  0  0  0
   26.5510   12.3400   -9.4100 C   0  0  0  0  0  0  0  0  0  0  0  0
   27.7350   12.8120   -9.9680 N   0  0  0  0  0  0  0  0  0  0  0  0
   27.5860   14.7900   -8.6070 C   0  0  0  0  0  0  0  0  0  0  0  0
   28.2500   14.0370   -9.5670 C   0  0  0  0  0  0  0  0  0  0  0  0
   25.8500   11.1790   -9.6360 N   0  0  0  0  0  0  0  0  0  0  0  0
   26.0610    9.9810   -8.8700 C   0  0  2  0  0  0  0  0  0  0  0  0
   27.5790    9.8910   -8.5000 C   0  0  1  0  0  0  0  0  0  0  0  0
   27.9530    8.5790   -7.9170 C   0  0  1  0  0  0  0  0  0  0  0  0
   27.5340    7.4980   -8.7780 O   0  0  0  0  0  0  0  0  0  0  0  0
   26.0970    7.4730   -8.8290 C   0  0  1  0  0  0  0  0  0  0  0  0
   25.6190    8.7140   -9.5470 C   0  0  1  0  0  0  0  0  0  0  0  0
   28.2880   15.9480   -8.3740 N   0  0  0  0  0  0  0  0  0  0  0  0
   28.0500   17.1910   -8.9160 C   0  0  0  0  0  0  0  0  0  0  0  0
   29.0010   17.8390   -9.6950 C   0  0  0  0  0  0  0  0  0  0  0  0
   28.7150   19.0790  -10.2520 C   0  0  0  0  0  0  0  0  0  0  0  0
   27.4780   19.6720  -10.0300 C   0  0  0  0  0  0  0  0  0  0  0  0
   26.5270   19.0240   -9.2500 N   0  0  0  0  0  0  0  0  0  0  0  0
   26.8110   17.7890   -8.6890 C   0  0  0  0  0  0  0  0  0  0  0  0
   27.2220   20.7830  -10.5290 O   0  0  0  0  0  0  0  0  0  0  0  0
   29.5320   14.5510  -10.1740 C   0  0  1  0  0  0  0  0  0  0  0  0
   25.8763   14.9145   -7.2960 H   0  0  0  0  0  0  0  0  0  0  0  0
   25.1439   11.1671  -10.3858 H   0  0  0  0  0  0  0  0  0  0  0  0
   25.4268   10.0614   -7.9748 H   0  0  0  0  0  0  0  0  0  0  0  0
   28.1729   10.0523   -9.4117 H   0  0  0  0  0  0  0  0  0  0  0  0
   27.7802   10.6601   -7.7398 H   0  0  0  0  0  0  0  0  0  0  0  0
   29.0451    8.5380   -7.7918 H   0  0  0  0  0  0  0  0  0  0  0  0
   27.4521    8.4695   -6.9438 H   0  0  0  0  0  0  0  0  0  0  0  0
   25.7609    6.5777   -9.3725 H   0  0  0  0  0  0  0  0  0  0  0  0
   25.6849    7.4462   -7.8095 H   0  0  0  0  0  0  0  0  0  0  0  0
   24.5197    8.6988   -9.5826 H   0  0  0  0  0  0  0  0  0  0  0  0
   26.0582    8.7049  -10.5555 H   0  0  0  0  0  0  0  0  0  0  0  0
   29.0812   15.8783   -7.7206 H   0  0  0  0  0  0  0  0  0  0  0  0
   29.9804   17.3700   -9.8706 H   0  0  0  0  0  0  0  0  0  0  0  0
   29.4678   19.5916  -10.8689 H   0  0  0  0  0  0  0  0  0  0  0  0
   25.6092   19.4628   -9.0887 H   0  0  0  0  0  0  0  0  0  0  0  0
   26.0602   17.2813   -8.0656 H   0  0  0  0  0  0  0  0  0  0  0  0
   30.2309   14.8312   -9.3721 H   0  0  0  0  0  0  0  0  0  0  0  0
   29.9842   13.7646  -10.7962 H   0  0  0  0  0  0  0  0  0  0  0  0
   29.3157   15.4319  -10.7962 H   0  0  0  0  0  0  0  0  0  0  0  0
  1  5  2  0
  1  2  1  0
  2  3  2  0
  3  4  1  0
  3  7  1  0
  4  6  2  0
  5  6  1  0
  5 14  1  0
  6 22  1  0
  7  8  1  0
  8 13  1  0
  8  9  1  0
  9 10  1  0
 10 11  1  0
 11 12  1  0
 12 13  1  0
 14 15  1  0
 15 16  1  0
 15 20  2  0
 16 17  2  0
 17 18  1  0
 18 21  2  0
 18 19  1  0
 19 20  1  0
  1 23  1  0
  7 24  1  0
  8 25  1  1
  9 26  1  6
  9 27  1  0
 10 28  1  1
 10 29  1  0
 12 30  1  6
 12 31  1  0
 13 32  1  6
 13 33  1  0
 14 34  1  0
 16 35  1  0
 17 36  1  0
 19 37  1  0
 20 38  1  0
 22 39  1  1
 22 40  1  0
 22 41  1  0
M  END
>  <Pose ID>  (140)
206

>  <Score>  (140)
-6.064127445220947

>  <smiles>  (140)
Cc1nc(NC2CCOCC2)ncc1Nc1ccc(=O)[nH]c1

$$$$

     RDKit          3D

 44 46  0  0  0  0  0  0  0  0999 V2000
   23.4390   13.2290   -7.0250 C   0  0  0  0  0  0  0  0  0  0  0  0
   23.6010   11.9920   -7.6240 N   0  0  0  0  0  0  0  0  0  0  0  0
   24.5040   11.8380   -8.6670 C   0  0  0  0  0  0  0  0  0  0  0  0
   25.2460   12.9300   -9.1110 N   0  0  0  0  0  0  0  0  0  0  0  0
   24.1800   14.3190   -7.4620 C   0  0  0  0  0  0  0  0  0  0  0  0
   25.0810   14.1690   -8.5080 C   0  0  0  0  0  0  0  0  0  0  0  0
   24.4870   10.5300   -9.0950 N   0  0  0  0  0  0  0  0  0  0  0  0
   25.3240    9.5150   -8.5180 C   0  0  2  0  0  0  0  0  0  0  0  0
   26.6910   10.1660   -8.1220 C   0  0  1  0  0  0  0  0  0  0  0  0
   27.7170    9.1630   -7.7400 C   0  0  1  0  0  0  0  0  0  0  0  0
   27.8620    8.1630   -8.7720 O   0  0  0  0  0  0  0  0  0  0  0  0
   26.6420    7.4080   -8.8690 C   0  0  1  0  0  0  0  0  0  0  0  0
   25.5580    8.3170   -9.3970 C   0  0  1  0  0  0  0  0  0  0  0  0
   24.2000   15.6190   -7.0350 N   0  0  0  0  0  0  0  0  0  0  0  0
   23.8990   16.7040   -7.8100 C   0  0  0  0  0  0  0  0  0  0  0  0
   24.0070   17.7550   -7.0010 C   0  0  0  0  0  0  0  0  0  0  0  0
   23.9330   19.1610   -7.2350 N   0  0  0  0  0  0  0  0  0  0  0  0
   24.4210   16.0630   -5.7460 C   0  0  0  0  0  0  0  0  0  0  0  0
   24.3850   17.3750   -5.8070 C   0  0  0  0  0  0  0  0  0  0  0  0
   22.9170   19.8430   -6.8090 C   0  0  0  0  0  0  0  0  0  0  0  0
   22.0230   19.4630   -6.0660 O   0  0  0  0  0  0  0  0  0  0  0  0
   23.0180   21.3380   -7.1590 C   0  0  1  0  0  0  0  0  0  0  0  0
   24.4530   21.9830   -7.5000 C   0  0  1  0  0  0  0  0  0  0  0  0
   22.7211   13.3491   -6.2003 H   0  0  0  0  0  0  0  0  0  0  0  0
   25.6644   15.0330   -8.8589 H   0  0  0  0  0  0  0  0  0  0  0  0
   23.8485   10.2684   -9.8597 H   0  0  0  0  0  0  0  0  0  0  0  0
   24.7891    9.1243   -7.6398 H   0  0  0  0  0  0  0  0  0  0  0  0
   27.0665   10.7438   -8.9794 H   0  0  0  0  0  0  0  0  0  0  0  0
   26.5113   10.8061   -7.2456 H   0  0  0  0  0  0  0  0  0  0  0  0
   28.6812    9.6712   -7.5915 H   0  0  0  0  0  0  0  0  0  0  0  0
   27.3993    8.6684   -6.8102 H   0  0  0  0  0  0  0  0  0  0  0  0
   26.7834    6.5607   -9.5561 H   0  0  0  0  0  0  0  0  0  0  0  0
   26.3594    7.0188   -7.8797 H   0  0  0  0  0  0  0  0  0  0  0  0
   24.6217    7.7439   -9.4670 H   0  0  0  0  0  0  0  0  0  0  0  0
   25.8844    8.6860  -10.3805 H   0  0  0  0  0  0  0  0  0  0  0  0
   23.6257   16.7076   -8.8755 H   0  0  0  0  0  0  0  0  0  0  0  0
   24.6913   19.6360   -7.7452 H   0  0  0  0  0  0  0  0  0  0  0  0
   24.5920   15.4452   -4.8521 H   0  0  0  0  0  0  0  0  0  0  0  0
   24.6353   18.0531   -4.9779 H   0  0  0  0  0  0  0  0  0  0  0  0
   22.3771   21.5038   -8.0375 H   0  0  0  0  0  0  0  0  0  0  0  0
   22.7277   21.8397   -6.2241 H   0  0  0  0  0  0  0  0  0  0  0  0
   24.9802   22.2200   -6.5641 H   0  0  0  0  0  0  0  0  0  0  0  0
   25.0479   21.2657   -8.0844 H   0  0  0  0  0  0  0  0  0  0  0  0
   24.3115   22.9041   -8.0844 H   0  0  0  0  0  0  0  0  0  0  0  0
  1  2  2  0
  1  5  1  0
  2  3  1  0
  3  4  2  0
  3  7  1  0
  4  6  1  0
  5  6  2  0
  5 14  1  0
  7  8  1  0
  8 13  1  0
  8  9  1  0
  9 10  1  0
 10 11  1  0
 11 12  1  0
 12 13  1  0
 14 15  1  0
 14 18  1  0
 15 16  2  0
 16 17  1  0
 16 19  1  0
 18 19  2  0
 17 20  1  0
 20 22  1  0
 20 21  2  0
 22 23  1  0
  1 24  1  0
  6 25  1  0
  7 26  1  0
  8 27  1  1
  9 28  1  6
  9 29  1  0
 10 30  1  1
 10 31  1  0
 12 32  1  6
 12 33  1  0
 13 34  1  6
 13 35  1  0
 15 36  1  0
 17 37  1  0
 18 38  1  0
 19 39  1  0
 22 40  1  6
 22 41  1  0
 23 42  1  1
 23 43  1  0
 23 44  1  0
M  END
>  <Pose ID>  (141)
253

>  <Score>  (141)
-6.04958438873291

>  <smiles>  (141)
CCC(=O)Nc1ccn(-c2cnc(NC3CCOCC3)nc2)c1

$$$$

     RDKit          3D

 41 43  0  0  0  0  0  0  0  0999 V2000
   26.0110   14.2570   -7.9910 C   0  0  0  0  0  0  0  0  0  0  0  0
   25.6700   13.0600   -8.5970 N   0  0  0  0  0  0  0  0  0  0  0  0
   26.6140   12.3650   -9.3400 C   0  0  0  0  0  0  0  0  0  0  0  0
   27.9010   12.8750   -9.4780 N   0  0  0  0  0  0  0  0  0  0  0  0
   27.2950   14.7680   -8.1240 C   0  0  0  0  0  0  0  0  0  0  0  0
   28.2400   14.0760   -8.8700 C   0  0  0  0  0  0  0  0  0  0  0  0
   26.0450   11.2160   -9.8360 N   0  0  0  0  0  0  0  0  0  0  0  0
   26.0340    9.9760   -9.1090 C   0  0  2  0  0  0  0  0  0  0  0  0
   27.3660    9.8720   -8.2920 C   0  0  1  0  0  0  0  0  0  0  0  0
   27.5710    8.5300   -7.6940 C   0  0  1  0  0  0  0  0  0  0  0  0
   27.4630    7.4990   -8.7010 O   0  0  0  0  0  0  0  0  0  0  0  0
   26.1140    7.4700   -9.1960 C   0  0  1  0  0  0  0  0  0  0  0  0
   25.8530    8.7500   -9.9580 C   0  0  1  0  0  0  0  0  0  0  0  0
   27.8650   15.9140   -7.6220 N   0  0  0  0  0  0  0  0  0  0  0  0
   27.7830   17.1750   -8.1420 C   0  0  0  0  0  0  0  0  0  0  0  0
   26.5250   17.7520   -8.2720 C   0  0  0  0  0  0  0  0  0  0  0  0
   26.3980   19.0270   -8.8130 C   0  0  0  0  0  0  0  0  0  0  0  0
   27.5280   19.7240   -9.2220 N   0  0  0  0  0  0  0  0  0  0  0  0
   28.7860   19.1470   -9.0910 C   0  0  0  0  0  0  0  0  0  0  0  0
   28.9130   17.8730   -8.5510 C   0  0  0  0  0  0  0  0  0  0  0  0
   29.7980   19.7710   -9.4570 O   0  0  0  0  0  0  0  0  0  0  0  0
   25.0320   19.6530   -8.9550 C   0  0  1  0  0  0  0  0  0  0  0  0
   25.2615   14.8056   -7.4016 H   0  0  0  0  0  0  0  0  0  0  0  0
   29.2574   14.4796   -8.9792 H   0  0  0  0  0  0  0  0  0  0  0  0
   25.6080   11.2449  -10.7682 H   0  0  0  0  0  0  0  0  0  0  0  0
   25.1519    9.9998   -8.4523 H   0  0  0  0  0  0  0  0  0  0  0  0
   28.2087   10.0893   -8.9648 H   0  0  0  0  0  0  0  0  0  0  0  0
   27.3052   10.5964   -7.4664 H   0  0  0  0  0  0  0  0  0  0  0  0
   28.5715    8.4867   -7.2390 H   0  0  0  0  0  0  0  0  0  0  0  0
   26.7966    8.3612   -6.9312 H   0  0  0  0  0  0  0  0  0  0  0  0
   25.9831    6.6069   -9.8652 H   0  0  0  0  0  0  0  0  0  0  0  0
   25.4075    7.3806   -8.3576 H   0  0  0  0  0  0  0  0  0  0  0  0
   24.8194    8.7315  -10.3339 H   0  0  0  0  0  0  0  0  0  0  0  0
   26.5830    8.8032  -10.7791 H   0  0  0  0  0  0  0  0  0  0  0  0
   28.4152   15.8105   -6.7575 H   0  0  0  0  0  0  0  0  0  0  0  0
   25.6304   17.2005   -7.9472 H   0  0  0  0  0  0  0  0  0  0  0  0
   27.4337   20.6683   -9.6223 H   0  0  0  0  0  0  0  0  0  0  0  0
   29.9085   17.4167   -8.4472 H   0  0  0  0  0  0  0  0  0  0  0  0
   24.6114   19.8457   -7.9570 H   0  0  0  0  0  0  0  0  0  0  0  0
   25.1187   20.6012   -9.5057 H   0  0  0  0  0  0  0  0  0  0  0  0
   24.3703   18.9683   -9.5057 H   0  0  0  0  0  0  0  0  0  0  0  0
  1  2  2  0
  1  5  1  0
  2  3  1  0
  3  7  1  0
  3  4  2  0
  4  6  1  0
  5  6  2  0
  5 14  1  0
  7  8  1  0
  8 13  1  0
  8  9  1  0
  9 10  1  0
 10 11  1  0
 11 12  1  0
 12 13  1  0
 14 15  1  0
 15 20  2  0
 15 16  1  0
 16 17  2  0
 17 18  1  0
 17 22  1  0
 18 19  1  0
 19 21  2  0
 19 20  1  0
  1 23  1  0
  6 24  1  0
  7 25  1  0
  8 26  1  1
  9 27  1  6
  9 28  1  0
 10 29  1  1
 10 30  1  0
 12 31  1  6
 12 32  1  0
 13 33  1  6
 13 34  1  0
 14 35  1  0
 16 36  1  0
 18 37  1  0
 20 38  1  0
 22 39  1  1
 22 40  1  0
 22 41  1  0
M  END
>  <Pose ID>  (142)
213

>  <Score>  (142)
-6.026432514190674

>  <smiles>  (142)
Cc1cc(Nc2cnc(NC3CCOCC3)nc2)cc(=O)[nH]1

$$$$

     RDKit          3D

 18 19  0  0  0  0  0  0  0  0999 V2000
   27.8630    8.0700  -10.4430 C   0  0  0  0  0  0  0  0  0  0  0  0
   27.4440    7.0420   -9.6060 N   0  0  0  0  0  0  0  0  0  0  0  0
   26.3500    7.2560   -8.7780 C   0  0  0  0  0  0  0  0  0  0  0  0
   25.6930    8.4800   -8.7910 N   0  0  0  0  0  0  0  0  0  0  0  0
   26.1300    9.4930   -9.6360 C   0  0  0  0  0  0  0  0  0  0  0  0
   27.2520    9.3190  -10.4760 C   0  0  0  0  0  0  0  0  0  0  0  0
   28.9490    7.8070  -11.2720 N   0  0  0  0  0  0  0  0  0  0  0  0
   29.4220    8.7910  -12.1320 C   0  0  0  0  0  0  0  0  0  0  0  0
   28.8100   10.0380  -12.1640 C   0  0  0  0  0  0  0  0  0  0  0  0
   27.7240   10.3020  -11.3360 C   0  0  0  0  0  0  0  0  0  0  0  0
   25.3900   10.8080   -9.6570 C   0  0  1  0  0  0  0  0  0  0  0  0
   26.0026    6.4541   -8.1099 H   0  0  0  0  0  0  0  0  0  0  0  0
   30.2807    8.5826  -12.7872 H   0  0  0  0  0  0  0  0  0  0  0  0
   29.1845   10.8169  -12.8445 H   0  0  0  0  0  0  0  0  0  0  0  0
   27.2392   11.2890  -11.3624 H   0  0  0  0  0  0  0  0  0  0  0  0
   25.2031   11.1401   -8.6251 H   0  0  0  0  0  0  0  0  0  0  0  0
   25.9965   11.5617  -10.1806 H   0  0  0  0  0  0  0  0  0  0  0  0
   24.4310   10.6808  -10.1806 H   0  0  0  0  0  0  0  0  0  0  0  0
  1  7  1  0
  1  6  1  0
  1  2  2  0
  2  3  1  0
  3  4  2  0
  4  5  1  0
  5  6  2  0
  5 11  1  0
  6 10  1  0
  7  8  2  0
  8  9  1  0
  9 10  2  0
  3 12  1  0
  8 13  1  0
  9 14  1  0
 10 15  1  0
 11 16  1  1
 11 17  1  0
 11 18  1  0
M  END
>  <Pose ID>  (143)
257

>  <Score>  (143)
-6.011195659637451

>  <smiles>  (143)
Cc1ncnc2ncccc12

$$$$

     RDKit          3D

 46 48  0  0  0  0  0  0  0  0999 V2000
   26.6500   13.7410   -6.8160 C   0  0  0  0  0  0  0  0  0  0  0  0
   26.1200   12.4790   -7.0360 N   0  0  0  0  0  0  0  0  0  0  0  0
   25.9510   12.0170   -8.3320 C   0  0  0  0  0  0  0  0  0  0  0  0
   26.3130   12.8180   -9.4100 N   0  0  0  0  0  0  0  0  0  0  0  0
   27.0140   14.5430   -7.8890 C   0  0  0  0  0  0  0  0  0  0  0  0
   26.8430   14.0820   -9.1880 C   0  0  0  0  0  0  0  0  0  0  0  0
   25.4160   10.7500   -8.2940 N   0  0  0  0  0  0  0  0  0  0  0  0
   26.2240    9.5640   -8.2150 C   0  0  2  0  0  0  0  0  0  0  0  0
   27.5380    9.8070   -9.0290 C   0  0  1  0  0  0  0  0  0  0  0  0
   28.3370    8.5700   -9.2160 C   0  0  1  0  0  0  0  0  0  0  0  0
   27.5270    7.5170   -9.7830 O   0  0  0  0  0  0  0  0  0  0  0  0
   26.5090    7.1510   -8.8340 C   0  0  1  0  0  0  0  0  0  0  0  0
   25.5480    8.3080   -8.6870 C   0  0  1  0  0  0  0  0  0  0  0  0
   27.5570   15.8050   -7.9240 N   0  0  0  0  0  0  0  0  0  0  0  0
   26.8840   16.9920   -7.8370 C   0  0  0  0  0  0  0  0  0  0  0  0
   26.9190   17.9450   -8.8460 C   0  0  0  0  0  0  0  0  0  0  0  0
   26.2040   19.1300   -8.7090 C   0  0  0  0  0  0  0  0  0  0  0  0
   25.4550   19.3610   -7.5630 C   0  0  0  0  0  0  0  0  0  0  0  0
   25.4210   18.4070   -6.5510 C   0  0  0  0  0  0  0  0  0  0  0  0
   26.1130   17.2100   -6.7040 C   0  0  0  0  0  0  0  0  0  0  0  0
   27.6550   17.7200   -9.9750 N   0  0  0  0  0  0  0  0  0  0  0  0
   26.9820   17.3640  -11.2330 C   0  0  1  0  0  0  0  0  0  0  0  0
   29.0590   18.0300  -10.1550 C   0  0  1  0  0  0  0  0  0  0  0  0
   26.7826   14.1081   -5.7876 H   0  0  0  0  0  0  0  0  0  0  0  0
   27.1271   14.7174  -10.0398 H   0  0  0  0  0  0  0  0  0  0  0  0
   24.3916   10.6469   -8.3235 H   0  0  0  0  0  0  0  0  0  0  0  0
   26.4306    9.3907   -7.1486 H   0  0  0  0  0  0  0  0  0  0  0  0
   27.2696   10.2048  -10.0188 H   0  0  0  0  0  0  0  0  0  0  0  0
   28.1549   10.5160   -8.4573 H   0  0  0  0  0  0  0  0  0  0  0  0
   29.1776    8.7825   -9.8929 H   0  0  0  0  0  0  0  0  0  0  0  0
   28.7093    8.2391   -8.2352 H   0  0  0  0  0  0  0  0  0  0  0  0
   25.9681    6.2636   -9.1946 H   0  0  0  0  0  0  0  0  0  0  0  0
   26.9680    6.9181   -7.8619 H   0  0  0  0  0  0  0  0  0  0  0  0
   24.7716    8.0308   -7.9588 H   0  0  0  0  0  0  0  0  0  0  0  0
   25.1191    8.5130   -9.6790 H   0  0  0  0  0  0  0  0  0  0  0  0
   28.5802   15.8628   -8.0267 H   0  0  0  0  0  0  0  0  0  0  0  0
   26.2319   19.8846   -9.5089 H   0  0  0  0  0  0  0  0  0  0  0  0
   24.8887   20.2979   -7.4553 H   0  0  0  0  0  0  0  0  0  0  0  0
   24.8481   18.5988   -5.6318 H   0  0  0  0  0  0  0  0  0  0  0  0
   26.0490   16.4352   -5.9258 H   0  0  0  0  0  0  0  0  0  0  0  0
   26.0299   16.8604  -11.0097 H   0  0  0  0  0  0  0  0  0  0  0  0
   26.7864   18.2766  -11.8152 H   0  0  0  0  0  0  0  0  0  0  0  0
   27.6263   16.6887  -11.8152 H   0  0  0  0  0  0  0  0  0  0  0  0
   29.5401   18.1362   -9.1715 H   0  0  0  0  0  0  0  0  0  0  0  0
   29.5450   17.2175  -10.7151 H   0  0  0  0  0  0  0  0  0  0  0  0
   29.1577   18.9716  -10.7151 H   0  0  0  0  0  0  0  0  0  0  0  0
  1  5  2  0
  1  2  1  0
  2  3  2  0
  3  4  1  0
  3  7  1  0
  4  6  2  0
  5  6  1  0
  5 14  1  0
  7  8  1  0
  8  9  1  0
  8 13  1  0
  9 10  1  0
 10 11  1  0
 11 12  1  0
 12 13  1  0
 14 15  1  0
 15 16  2  0
 15 20  1  0
 16 21  1  0
 16 17  1  0
 17 18  2  0
 18 19  1  0
 19 20  2  0
 21 22  1  0
 21 23  1  0
  1 24  1  0
  6 25  1  0
  7 26  1  0
  8 27  1  1
  9 28  1  6
  9 29  1  0
 10 30  1  6
 10 31  1  0
 12 32  1  6
 12 33  1  0
 13 34  1  1
 13 35  1  0
 14 36  1  0
 17 37  1  0
 18 38  1  0
 19 39  1  0
 20 40  1  0
 22 41  1  1
 22 42  1  0
 22 43  1  0
 23 44  1  1
 23 45  1  0
 23 46  1  0
M  END
>  <Pose ID>  (144)
188

>  <Score>  (144)
-6.000931262969971

>  <smiles>  (144)
CN(C)c1ccccc1Nc1cnc(NC2CCOCC2)nc1

$$$$

     RDKit          3D

 44 46  0  0  0  0  0  0  0  0999 V2000
   25.9290   14.0940   -8.1200 C   0  0  0  0  0  0  0  0  0  0  0  0
   25.6270   12.8830   -8.7210 N   0  0  0  0  0  0  0  0  0  0  0  0
   26.6040   12.1980   -9.4280 C   0  0  0  0  0  0  0  0  0  0  0  0
   27.8870   12.7280   -9.5350 N   0  0  0  0  0  0  0  0  0  0  0  0
   27.2080   14.6270   -8.2230 C   0  0  0  0  0  0  0  0  0  0  0  0
   28.1850   13.9420   -8.9330 C   0  0  0  0  0  0  0  0  0  0  0  0
   26.0700   11.0330   -9.9250 N   0  0  0  0  0  0  0  0  0  0  0  0
   26.0610    9.8010   -9.1830 C   0  0  2  0  0  0  0  0  0  0  0  0
   27.3690    9.7310   -8.3280 C   0  0  1  0  0  0  0  0  0  0  0  0
   27.5810    8.3980   -7.7090 C   0  0  1  0  0  0  0  0  0  0  0  0
   27.5190    7.3540   -8.7050 O   0  0  0  0  0  0  0  0  0  0  0  0
   26.1850    7.2950   -9.2370 C   0  0  1  0  0  0  0  0  0  0  0  0
   25.9240    8.5610  -10.0220 C   0  0  1  0  0  0  0  0  0  0  0  0
   27.7430   15.7870   -7.7200 N   0  0  0  0  0  0  0  0  0  0  0  0
   27.6380   17.0360   -8.2500 C   0  0  0  0  0  0  0  0  0  0  0  0
   26.3800   17.5860   -8.4140 C   0  0  0  0  0  0  0  0  0  0  0  0
   26.2370   18.8440   -9.0010 C   0  0  0  0  0  0  0  0  0  0  0  0
   27.3650   19.5590   -9.3840 N   0  0  0  0  0  0  0  0  0  0  0  0
   28.6320   19.0100   -9.2020 C   0  0  0  0  0  0  0  0  0  0  0  0
   28.7670   17.7500   -8.6340 C   0  0  0  0  0  0  0  0  0  0  0  0
   29.6420   19.6510   -9.5450 O   0  0  0  0  0  0  0  0  0  0  0  0
   27.5540   20.8240  -10.0120 C   0  0  1  0  0  0  0  0  0  0  0  0
   29.5730   14.5190   -9.0510 C   0  0  1  0  0  0  0  0  0  0  0  0
   25.1532   14.6358   -7.5590 H   0  0  0  0  0  0  0  0  0  0  0  0
   25.6587   11.0428  -10.8693 H   0  0  0  0  0  0  0  0  0  0  0  0
   25.1607    9.8165   -8.5511 H   0  0  0  0  0  0  0  0  0  0  0  0
   28.2267    9.9568   -8.9786 H   0  0  0  0  0  0  0  0  0  0  0  0
   27.2714   10.4631   -7.5128 H   0  0  0  0  0  0  0  0  0  0  0  0
   28.5692    8.3776   -7.2263 H   0  0  0  0  0  0  0  0  0  0  0  0
   26.7883    8.2242   -6.9664 H   0  0  0  0  0  0  0  0  0  0  0  0
   26.0879    6.4217   -9.8987 H   0  0  0  0  0  0  0  0  0  0  0  0
   25.4567    7.2031   -8.4178 H   0  0  0  0  0  0  0  0  0  0  0  0
   24.9017    8.5204  -10.4261 H   0  0  0  0  0  0  0  0  0  0  0  0
   26.6755    8.6166  -10.8233 H   0  0  0  0  0  0  0  0  0  0  0  0
   28.2824   15.7028   -6.8466 H   0  0  0  0  0  0  0  0  0  0  0  0
   25.4905   17.0310   -8.0812 H   0  0  0  0  0  0  0  0  0  0  0  0
   25.2345   19.2681   -9.1599 H   0  0  0  0  0  0  0  0  0  0  0  0
   29.7676   17.3169   -8.4880 H   0  0  0  0  0  0  0  0  0  0  0  0
   27.6702   21.6016   -9.2427 H   0  0  0  0  0  0  0  0  0  0  0  0
   28.4571   20.7908  -10.6391 H   0  0  0  0  0  0  0  0  0  0  0  0
   26.6806   21.0562  -10.6391 H   0  0  0  0  0  0  0  0  0  0  0  0
   29.9855   14.6905   -8.0458 H   0  0  0  0  0  0  0  0  0  0  0  0
   30.2178   13.8144   -9.5967 H   0  0  0  0  0  0  0  0  0  0  0  0
   29.5283   15.4731   -9.5967 H   0  0  0  0  0  0  0  0  0  0  0  0
  1  2  2  0
  1  5  1  0
  2  3  1  0
  3  7  1  0
  3  4  2  0
  4  6  1  0
  5  6  2  0
  5 14  1  0
  6 23  1  0
  7  8  1  0
  8 13  1  0
  8  9  1  0
  9 10  1  0
 10 11  1  0
 11 12  1  0
 12 13  1  0
 14 15  1  0
 15 20  2  0
 15 16  1  0
 16 17  2  0
 17 18  1  0
 18 22  1  0
 18 19  1  0
 19 21  2  0
 19 20  1  0
  1 24  1  0
  7 25  1  0
  8 26  1  1
  9 27  1  6
  9 28  1  0
 10 29  1  1
 10 30  1  0
 12 31  1  6
 12 32  1  0
 13 33  1  6
 13 34  1  0
 14 35  1  0
 16 36  1  0
 17 37  1  0
 20 38  1  0
 22 39  1  1
 22 40  1  0
 22 41  1  0
 23 42  1  1
 23 43  1  0
 23 44  1  0
M  END
>  <Pose ID>  (145)
250

>  <Score>  (145)
-6.000159740447998

>  <smiles>  (145)
Cc1nc(NC2CCOCC2)ncc1Nc1ccn(C)c(=O)c1

$$$$

     RDKit          3D

 46 48  0  0  0  0  0  0  0  0999 V2000
   27.0810   14.3290   -7.5240 C   0  0  0  0  0  0  0  0  0  0  0  0
   26.3470   13.1610   -7.6480 N   0  0  0  0  0  0  0  0  0  0  0  0
   26.4110   12.4230   -8.8230 C   0  0  0  0  0  0  0  0  0  0  0  0
   27.2130   12.8590   -9.8730 N   0  0  0  0  0  0  0  0  0  0  0  0
   27.8830   14.7650   -8.5700 C   0  0  0  0  0  0  0  0  0  0  0  0
   27.9470   14.0300   -9.7460 C   0  0  0  0  0  0  0  0  0  0  0  0
   25.6060   11.3160   -8.7060 N   0  0  0  0  0  0  0  0  0  0  0  0
   26.0690   10.0680   -8.1610 C   0  0  2  0  0  0  0  0  0  0  0  0
   27.5670    9.8760   -8.5740 C   0  0  1  0  0  0  0  0  0  0  0  0
   28.0780    8.5160   -8.2710 C   0  0  1  0  0  0  0  0  0  0  0  0
   27.2170    7.5070   -8.8440 O   0  0  0  0  0  0  0  0  0  0  0  0
   25.9350    7.5640   -8.1950 C   0  0  1  0  0  0  0  0  0  0  0  0
   25.2640    8.8660   -8.5670 C   0  0  1  0  0  0  0  0  0  0  0  0
   28.6940   15.8700   -8.6820 N   0  0  0  0  0  0  0  0  0  0  0  0
   28.3010   17.1330   -9.0260 C   0  0  0  0  0  0  0  0  0  0  0  0
   28.8280   17.7830  -10.1360 C   0  0  0  0  0  0  0  0  0  0  0  0
   28.4050   19.0680  -10.4550 C   0  0  0  0  0  0  0  0  0  0  0  0
   27.4540   19.7030   -9.6660 C   0  0  0  0  0  0  0  0  0  0  0  0
   26.9260   19.0520   -8.5550 N   0  0  0  0  0  0  0  0  0  0  0  0
   27.3490   17.7680   -8.2360 C   0  0  0  0  0  0  0  0  0  0  0  0
   27.0070   15.1300   -6.2480 C   0  0  1  0  0  0  0  0  0  0  0  0
   26.9940   21.0970  -10.0120 C   0  0  1  0  0  0  0  0  0  0  0  0
   25.7290   21.4100   -9.1470 C   0  0  1  0  0  0  0  0  0  0  0  0
   28.5794   14.3757  -10.5770 H   0  0  0  0  0  0  0  0  0  0  0  0
   24.6281   11.3826   -9.0224 H   0  0  0  0  0  0  0  0  0  0  0  0
   25.9505   10.1337   -7.0694 H   0  0  0  0  0  0  0  0  0  0  0  0
   27.6586   10.0528   -9.6558 H   0  0  0  0  0  0  0  0  0  0  0  0
   28.1653   10.5917   -7.9911 H   0  0  0  0  0  0  0  0  0  0  0  0
   29.0891    8.4085   -8.6907 H   0  0  0  0  0  0  0  0  0  0  0  0
   28.1014    8.3823   -7.1794 H   0  0  0  0  0  0  0  0  0  0  0  0
   25.3138    6.7189   -8.5266 H   0  0  0  0  0  0  0  0  0  0  0  0
   26.0630    7.5054   -7.1041 H   0  0  0  0  0  0  0  0  0  0  0  0
   24.2849    8.9128   -8.0679 H   0  0  0  0  0  0  0  0  0  0  0  0
   25.1628    8.8874   -9.6621 H   0  0  0  0  0  0  0  0  0  0  0  0
   29.6960   15.7322   -8.4875 H   0  0  0  0  0  0  0  0  0  0  0  0
   29.5799   17.2803  -10.7620 H   0  0  0  0  0  0  0  0  0  0  0  0
   28.8234   19.5825  -11.3326 H   0  0  0  0  0  0  0  0  0  0  0  0
   26.9308   17.2534   -7.3583 H   0  0  0  0  0  0  0  0  0  0  0  0
   27.0697   14.4511   -5.3848 H   0  0  0  0  0  0  0  0  0  0  0  0
   27.8430   15.8441   -6.2144 H   0  0  0  0  0  0  0  0  0  0  0  0
   26.0543   15.6789   -6.2144 H   0  0  0  0  0  0  0  0  0  0  0  0
   27.7907   21.8211   -9.7860 H   0  0  0  0  0  0  0  0  0  0  0  0
   26.7549   21.1685  -11.0833 H   0  0  0  0  0  0  0  0  0  0  0  0
   25.9892   21.3456   -8.0802 H   0  0  0  0  0  0  0  0  0  0  0  0
   25.3698   22.4241   -9.3763 H   0  0  0  0  0  0  0  0  0  0  0  0
   24.9383   20.6804   -9.3763 H   0  0  0  0  0  0  0  0  0  0  0  0
  1  5  2  0
  1  2  1  0
  1 21  1  0
  2  3  2  0
  3  4  1  0
  3  7  1  0
  4  6  2  0
  5  6  1  0
  5 14  1  0
  7  8  1  0
  8  9  1  0
  8 13  1  0
  9 10  1  0
 10 11  1  0
 11 12  1  0
 12 13  1  0
 14 15  1  0
 15 16  2  0
 15 20  1  0
 16 17  1  0
 17 18  2  0
 18 22  1  0
 18 19  1  0
 19 20  2  0
 22 23  1  0
  6 24  1  0
  7 25  1  0
  8 26  1  1
  9 27  1  6
  9 28  1  0
 10 29  1  6
 10 30  1  0
 12 31  1  6
 12 32  1  0
 13 33  1  1
 13 34  1  0
 14 35  1  0
 16 36  1  0
 17 37  1  0
 20 38  1  0
 21 39  1  1
 21 40  1  0
 21 41  1  0
 22 42  1  1
 22 43  1  0
 23 44  1  1
 23 45  1  0
 23 46  1  0
M  END
>  <Pose ID>  (146)
196

>  <Score>  (146)
-5.999405384063721

>  <smiles>  (146)
CCc1ccc(Nc2cnc(NC3CCOCC3)nc2C)cn1

$$$$

     RDKit          3D

 21 22  0  0  0  0  0  0  0  0999 V2000
   28.1990    7.5700  -10.4360 C   0  0  0  0  0  0  0  0  0  0  0  0
   27.3540    7.0480   -9.4630 N   0  0  0  0  0  0  0  0  0  0  0  0
   26.3130    7.8180   -8.9590 C   0  0  0  0  0  0  0  0  0  0  0  0
   26.1140    9.1110   -9.4340 N   0  0  0  0  0  0  0  0  0  0  0  0
   26.9590    9.6330  -10.4070 C   0  0  0  0  0  0  0  0  0  0  0  0
   27.9900    8.8460  -10.9220 C   0  0  0  0  0  0  0  0  0  0  0  0
   26.7930   10.7950  -10.8190 O   0  0  0  0  0  0  0  0  0  0  0  0
   25.2470    9.8760   -8.7230 C   0  0  0  0  0  0  0  0  0  0  0  0
   25.2860    9.6710   -7.3210 C   0  0  0  0  0  0  0  0  0  0  0  0
   24.4230   10.4900   -6.8290 C   0  0  0  0  0  0  0  0  0  0  0  0
   23.8020   11.1550   -7.7550 O   0  0  0  0  0  0  0  0  0  0  0  0
   24.2920   10.7270   -8.9300 C   0  0  0  0  0  0  0  0  0  0  0  0
   28.8800    9.3920  -12.0110 C   0  0  1  0  0  0  0  0  0  0  0  0
   29.0348    6.9662  -10.8192 H   0  0  0  0  0  0  0  0  0  0  0  0
   25.6474    7.4064   -8.1860 H   0  0  0  0  0  0  0  0  0  0  0  0
   25.9202    8.9614   -6.7694 H   0  0  0  0  0  0  0  0  0  0  0  0
   24.2343   10.6118   -5.7522 H   0  0  0  0  0  0  0  0  0  0  0  0
   23.9361   11.0503   -9.9194 H   0  0  0  0  0  0  0  0  0  0  0  0
   29.7344    9.9162  -11.5579 H   0  0  0  0  0  0  0  0  0  0  0  0
   29.2469    8.5634  -12.6345 H   0  0  0  0  0  0  0  0  0  0  0  0
   28.3076   10.0945  -12.6345 H   0  0  0  0  0  0  0  0  0  0  0  0
  1  6  2  0
  1  2  1  0
  2  3  2  0
  3  4  1  0
  4  5  1  0
  4  8  1  0
  5  6  1  0
  5  7  2  0
  6 13  1  0
  8 12  2  0
  8  9  1  0
  9 10  2  0
 10 11  1  0
 11 12  1  0
  1 14  1  0
  3 15  1  0
  9 16  1  0
 10 17  1  0
 12 18  1  0
 13 19  1  1
 13 20  1  0
 13 21  1  0
M  END
>  <Pose ID>  (147)
37

>  <Score>  (147)
-5.988125801086426

>  <smiles>  (147)
Cc1cncn(-c2ccoc2)c1=O

$$$$

     RDKit          3D

 40 42  0  0  0  0  0  0  0  0999 V2000
   26.4040   14.3200   -8.0510 C   0  0  0  0  0  0  0  0  0  0  0  0
   25.8890   13.1010   -8.4610 N   0  0  0  0  0  0  0  0  0  0  0  0
   26.5510   12.3600   -9.4310 C   0  0  0  0  0  0  0  0  0  0  0  0
   27.7290   12.8440   -9.9910 N   0  0  0  0  0  0  0  0  0  0  0  0
   27.5800   14.8050   -8.6060 C   0  0  0  0  0  0  0  0  0  0  0  0
   28.2420   14.0660   -9.5790 C   0  0  0  0  0  0  0  0  0  0  0  0
   25.8540   11.1980   -9.6670 N   0  0  0  0  0  0  0  0  0  0  0  0
   26.0750    9.9920   -8.9160 C   0  0  2  0  0  0  0  0  0  0  0  0
   27.5960    9.9050   -8.5570 C   0  0  1  0  0  0  0  0  0  0  0  0
   27.9800    8.5880   -7.9920 C   0  0  1  0  0  0  0  0  0  0  0  0
   27.5600    7.5150   -8.8630 O   0  0  0  0  0  0  0  0  0  0  0  0
   26.1220    7.4840   -8.9050 C   0  0  1  0  0  0  0  0  0  0  0  0
   25.6350    8.7320   -9.6060 C   0  0  1  0  0  0  0  0  0  0  0  0
   28.2790   15.9640   -8.3640 N   0  0  0  0  0  0  0  0  0  0  0  0
   28.0230   17.1920   -8.9060 C   0  0  0  0  0  0  0  0  0  0  0  0
   28.9770   17.8700   -9.6570 C   0  0  0  0  0  0  0  0  0  0  0  0
   28.6820   19.1180  -10.1920 C   0  0  0  0  0  0  0  0  0  0  0  0
   27.4340   19.6890   -9.9770 C   0  0  0  0  0  0  0  0  0  0  0  0
   26.4800   19.0120   -9.2260 N   0  0  0  0  0  0  0  0  0  0  0  0
   26.7740   17.7630   -8.6910 C   0  0  0  0  0  0  0  0  0  0  0  0
   29.7180   19.8540  -11.0060 C   0  0  1  0  0  0  0  0  0  0  0  0
   25.8787   14.9059   -7.2824 H   0  0  0  0  0  0  0  0  0  0  0  0
   29.1726   14.4496  -10.0227 H   0  0  0  0  0  0  0  0  0  0  0  0
   25.1439   11.1915  -10.4131 H   0  0  0  0  0  0  0  0  0  0  0  0
   25.4464   10.0584   -8.0157 H   0  0  0  0  0  0  0  0  0  0  0  0
   28.1831   10.0799   -9.4706 H   0  0  0  0  0  0  0  0  0  0  0  0
   27.7986   10.6661   -7.7891 H   0  0  0  0  0  0  0  0  0  0  0  0
   29.0731    8.5506   -7.8747 H   0  0  0  0  0  0  0  0  0  0  0  0
   27.4863    8.4648   -7.0168 H   0  0  0  0  0  0  0  0  0  0  0  0
   25.7861    6.5936   -9.4567 H   0  0  0  0  0  0  0  0  0  0  0  0
   25.7161    7.4431   -7.8834 H   0  0  0  0  0  0  0  0  0  0  0  0
   24.5356    8.7126   -9.6364 H   0  0  0  0  0  0  0  0  0  0  0  0
   26.0691    8.7370  -10.6167 H   0  0  0  0  0  0  0  0  0  0  0  0
   29.0727   15.9004   -7.7107 H   0  0  0  0  0  0  0  0  0  0  0  0
   29.9654   17.4183   -9.8276 H   0  0  0  0  0  0  0  0  0  0  0  0
   27.2007   20.6768  -10.4010 H   0  0  0  0  0  0  0  0  0  0  0  0
   26.0186   17.2268   -8.0978 H   0  0  0  0  0  0  0  0  0  0  0  0
   30.4257   20.3568  -10.3305 H   0  0  0  0  0  0  0  0  0  0  0  0
   30.2619   19.1387  -11.6404 H   0  0  0  0  0  0  0  0  0  0  0  0
   29.2215   20.6030  -11.6404 H   0  0  0  0  0  0  0  0  0  0  0  0
  1  5  2  0
  1  2  1  0
  2  3  2  0
  3  4  1  0
  3  7  1  0
  4  6  2  0
  5  6  1  0
  5 14  1  0
  7  8  1  0
  8 13  1  0
  8  9  1  0
  9 10  1  0
 10 11  1  0
 11 12  1  0
 12 13  1  0
 14 15  1  0
 15 16  2  0
 15 20  1  0
 16 17  1  0
 17 21  1  0
 17 18  2  0
 18 19  1  0
 19 20  2  0
  1 22  1  0
  6 23  1  0
  7 24  1  0
  8 25  1  1
  9 26  1  6
  9 27  1  0
 10 28  1  1
 10 29  1  0
 12 30  1  6
 12 31  1  0
 13 32  1  6
 13 33  1  0
 14 34  1  0
 16 35  1  0
 18 36  1  0
 20 37  1  0
 21 38  1  1
 21 39  1  0
 21 40  1  0
M  END
>  <Pose ID>  (148)
193

>  <Score>  (148)
-5.9831414222717285

>  <smiles>  (148)
Cc1cncc(Nc2cnc(NC3CCOCC3)nc2)c1

$$$$

     RDKit          3D

 23 25  0  0  0  0  0  0  0  0999 V2000
   28.1290    8.0290  -10.3870 C   0  0  0  0  0  0  0  0  0  0  0  0
   27.5020    7.0510   -9.6250 N   0  0  0  0  0  0  0  0  0  0  0  0
   26.2500    7.2950   -9.0740 C   0  0  0  0  0  0  0  0  0  0  0  0
   25.6230    8.5160   -9.2870 N   0  0  0  0  0  0  0  0  0  0  0  0
   26.2470    9.4930  -10.0510 C   0  0  0  0  0  0  0  0  0  0  0  0
   27.5010    9.2500  -10.6010 C   0  0  0  0  0  0  0  0  0  0  0  0
   25.8490   10.7320  -10.3920 N   0  0  0  0  0  0  0  0  0  0  0  0
   26.7140   11.2540  -11.0830 N   0  0  0  0  0  0  0  0  0  0  0  0
   27.7290   10.4530  -11.2690 C   0  0  0  0  0  0  0  0  0  0  0  0
   28.9420   10.5550  -11.9730 C   0  0  0  0  0  0  0  0  0  0  0  0
   29.2110   11.7660  -12.6950 C   0  0  0  0  0  0  0  0  0  0  0  0
   30.3070   11.7340  -13.2650 C   0  0  0  0  0  0  0  0  0  0  0  0
   29.9380    9.6820  -12.1880 O   0  0  0  0  0  0  0  0  0  0  0  0
   30.8170   10.2810  -12.9560 C   0  0  0  0  0  0  0  0  0  0  0  0
   28.2660   12.9410  -12.7510 C   0  0  1  0  0  0  0  0  0  0  0  0
   29.1216    7.8370  -10.8205 H   0  0  0  0  0  0  0  0  0  0  0  0
   25.7552    6.5210   -8.4689 H   0  0  0  0  0  0  0  0  0  0  0  0
   24.6950    8.6966   -8.8781 H   0  0  0  0  0  0  0  0  0  0  0  0
   30.8025   12.5266  -13.8449 H   0  0  0  0  0  0  0  0  0  0  0  0
   31.7552    9.8390  -13.3226 H   0  0  0  0  0  0  0  0  0  0  0  0
   28.0122   13.2565  -11.7282 H   0  0  0  0  0  0  0  0  0  0  0  0
   28.7483   13.7744  -13.2828 H   0  0  0  0  0  0  0  0  0  0  0  0
   27.3485   12.6487  -13.2828 H   0  0  0  0  0  0  0  0  0  0  0  0
  1  6  2  0
  1  2  1  0
  2  3  2  0
  3  4  1  0
  4  5  1  0
  5  6  1  0
  5  7  2  0
  6  9  1  0
  7  8  1  0
  8  9  2  0
  9 10  1  0
 10 11  2  0
 10 13  1  0
 11 12  1  0
 11 15  1  0
 12 14  2  0
 13 14  1  0
  1 16  1  0
  3 17  1  0
  4 18  1  0
 12 19  1  0
 14 20  1  0
 15 21  1  1
 15 22  1  0
 15 23  1  0
M  END
>  <Pose ID>  (149)
21

>  <Score>  (149)
-5.9806904792785645

>  <smiles>  (149)
Cc1ccoc1-c1nnc2[nH]cncc1-2

$$$$

     RDKit          3D

 41 43  0  0  0  0  0  0  0  0999 V2000
   25.9330   14.1440   -8.1310 C   0  0  0  0  0  0  0  0  0  0  0  0
   25.6570   12.9270   -8.7340 N   0  0  0  0  0  0  0  0  0  0  0  0
   26.6630   12.2390   -9.3960 C   0  0  0  0  0  0  0  0  0  0  0  0
   27.9480   12.7710   -9.4560 N   0  0  0  0  0  0  0  0  0  0  0  0
   27.2140   14.6780   -8.1880 C   0  0  0  0  0  0  0  0  0  0  0  0
   28.2200   13.9900   -8.8530 C   0  0  0  0  0  0  0  0  0  0  0  0
   26.1510   11.0690   -9.9050 N   0  0  0  0  0  0  0  0  0  0  0  0
   26.1150    9.8430   -9.1540 C   0  0  2  0  0  0  0  0  0  0  0  0
   27.3880    9.7820   -8.2470 C   0  0  1  0  0  0  0  0  0  0  0  0
   27.5780    8.4550   -7.6090 C   0  0  1  0  0  0  0  0  0  0  0  0
   27.5570    7.4030   -8.5990 O   0  0  0  0  0  0  0  0  0  0  0  0
   26.2450    7.3370   -9.1830 C   0  0  1  0  0  0  0  0  0  0  0  0
   26.0130    8.5960   -9.9880 C   0  0  1  0  0  0  0  0  0  0  0  0
   27.7270   15.8440   -7.6730 N   0  0  0  0  0  0  0  0  0  0  0  0
   27.6410   17.0880   -8.2170 C   0  0  0  0  0  0  0  0  0  0  0  0
   26.3890   17.6340   -8.4350 C   0  0  0  0  0  0  0  0  0  0  0  0
   26.2680   18.8870   -9.0370 C   0  0  0  0  0  0  0  0  0  0  0  0
   27.4090   19.6010   -9.3810 N   0  0  0  0  0  0  0  0  0  0  0  0
   28.6680   19.0570   -9.1440 C   0  0  0  0  0  0  0  0  0  0  0  0
   28.7830   17.8010   -8.5610 C   0  0  0  0  0  0  0  0  0  0  0  0
   29.6900   19.6970   -9.4520 O   0  0  0  0  0  0  0  0  0  0  0  0
   27.6200   20.8620  -10.0110 C   0  0  1  0  0  0  0  0  0  0  0  0
   25.1349   14.6889   -7.6055 H   0  0  0  0  0  0  0  0  0  0  0  0
   29.2345   14.4124   -8.9017 H   0  0  0  0  0  0  0  0  0  0  0  0
   25.7774   11.0706  -10.8648 H   0  0  0  0  0  0  0  0  0  0  0  0
   25.1906    9.8620   -8.5581 H   0  0  0  0  0  0  0  0  0  0  0  0
   28.2705   10.0043   -8.8649 H   0  0  0  0  0  0  0  0  0  0  0  0
   27.2563   10.5201   -7.4421 H   0  0  0  0  0  0  0  0  0  0  0  0
   28.5466    8.4406   -7.0878 H   0  0  0  0  0  0  0  0  0  0  0  0
   26.7575    8.2853   -6.8962 H   0  0  0  0  0  0  0  0  0  0  0  0
   26.1757    6.4581   -9.8409 H   0  0  0  0  0  0  0  0  0  0  0  0
   25.4850    7.2502   -8.3925 H   0  0  0  0  0  0  0  0  0  0  0  0
   25.0074    8.5502  -10.4316 H   0  0  0  0  0  0  0  0  0  0  0  0
   26.7952    8.6466  -10.7598 H   0  0  0  0  0  0  0  0  0  0  0  0
   28.2313   15.7680   -6.7781 H   0  0  0  0  0  0  0  0  0  0  0  0
   25.4878   17.0799   -8.1335 H   0  0  0  0  0  0  0  0  0  0  0  0
   25.2720   19.3082   -9.2386 H   0  0  0  0  0  0  0  0  0  0  0  0
   29.7777   17.3712   -8.3718 H   0  0  0  0  0  0  0  0  0  0  0  0
   27.7499   21.6385   -9.2428 H   0  0  0  0  0  0  0  0  0  0  0  0
   28.5223   20.8121  -10.6382 H   0  0  0  0  0  0  0  0  0  0  0  0
   26.7506   21.1086  -10.6382 H   0  0  0  0  0  0  0  0  0  0  0  0
  1  2  2  0
  1  5  1  0
  2  3  1  0
  3  7  1  0
  3  4  2  0
  4  6  1  0
  5  6  2  0
  5 14  1  0
  7  8  1  0
  8 13  1  0
  8  9  1  0
  9 10  1  0
 10 11  1  0
 11 12  1  0
 12 13  1  0
 14 15  1  0
 15 20  2  0
 15 16  1  0
 16 17  2  0
 17 18  1  0
 18 22  1  0
 18 19  1  0
 19 21  2  0
 19 20  1  0
  1 23  1  0
  6 24  1  0
  7 25  1  0
  8 26  1  1
  9 27  1  6
  9 28  1  0
 10 29  1  1
 10 30  1  0
 12 31  1  6
 12 32  1  0
 13 33  1  6
 13 34  1  0
 14 35  1  0
 16 36  1  0
 17 37  1  0
 20 38  1  0
 22 39  1  1
 22 40  1  0
 22 41  1  0
M  END
>  <Pose ID>  (150)
248

>  <Score>  (150)
-5.97409725189209

>  <smiles>  (150)
Cn1ccc(Nc2cnc(NC3CCOCC3)nc2)cc1=O

$$$$

     RDKit          3D

 40 42  0  0  0  0  0  0  0  0999 V2000
   26.4380   14.3370   -8.0520 C   0  0  0  0  0  0  0  0  0  0  0  0
   25.9140   13.1190   -8.4570 N   0  0  0  0  0  0  0  0  0  0  0  0
   26.5780   12.3630   -9.4140 C   0  0  0  0  0  0  0  0  0  0  0  0
   27.7670   12.8290   -9.9650 N   0  0  0  0  0  0  0  0  0  0  0  0
   27.6260   14.8030   -8.5980 C   0  0  0  0  0  0  0  0  0  0  0  0
   28.2900   14.0480   -9.5570 C   0  0  0  0  0  0  0  0  0  0  0  0
   25.8700   11.2070   -9.6470 N   0  0  0  0  0  0  0  0  0  0  0  0
   26.0690   10.0050   -8.8830 C   0  0  2  0  0  0  0  0  0  0  0  0
   27.5840    9.9040   -8.5060 C   0  0  1  0  0  0  0  0  0  0  0  0
   27.9470    8.5870   -7.9250 C   0  0  1  0  0  0  0  0  0  0  0  0
   27.5240    7.5120   -8.7910 O   0  0  0  0  0  0  0  0  0  0  0  0
   26.0870    7.4970   -8.8490 C   0  0  1  0  0  0  0  0  0  0  0  0
   25.6210    8.7440   -9.5660 C   0  0  1  0  0  0  0  0  0  0  0  0
   28.3350   15.9560   -8.3590 N   0  0  0  0  0  0  0  0  0  0  0  0
   27.9740   17.2600   -8.8840 C   0  0  0  0  0  0  0  0  0  0  0  0
   28.9880   17.8440   -9.6340 C   0  0  0  0  0  0  0  0  0  0  0  0
   28.7910   19.0900  -10.2180 C   0  0  0  0  0  0  0  0  0  0  0  0
   27.5790   19.7520  -10.0520 N   0  0  0  0  0  0  0  0  0  0  0  0
   26.5650   19.1670   -9.3020 C   0  0  0  0  0  0  0  0  0  0  0  0
   26.7740   17.9250   -8.7010 C   0  0  0  0  0  0  0  0  0  0  0  0
   25.2470   10.2820   -7.6060 C   0  0  1  0  0  0  0  0  0  0  0  0
   25.9104   14.9362   -7.2953 H   0  0  0  0  0  0  0  0  0  0  0  0
   29.2303   14.4165   -9.9929 H   0  0  0  0  0  0  0  0  0  0  0  0
   25.1677   11.2020  -10.4004 H   0  0  0  0  0  0  0  0  0  0  0  0
   28.1834   10.0644   -9.4143 H   0  0  0  0  0  0  0  0  0  0  0  0
   27.7864   10.6694   -7.7423 H   0  0  0  0  0  0  0  0  0  0  0  0
   29.0383    8.5381   -7.7956 H   0  0  0  0  0  0  0  0  0  0  0  0
   27.4417    8.4780   -6.9540 H   0  0  0  0  0  0  0  0  0  0  0  0
   25.7474    6.6056   -9.3968 H   0  0  0  0  0  0  0  0  0  0  0  0
   25.6697    7.4699   -7.8316 H   0  0  0  0  0  0  0  0  0  0  0  0
   24.5218    8.7369   -9.6068 H   0  0  0  0  0  0  0  0  0  0  0  0
   26.0645    8.7348  -10.5726 H   0  0  0  0  0  0  0  0  0  0  0  0
   29.1769   15.8903   -7.7692 H   0  0  0  0  0  0  0  0  0  0  0  0
   29.9463   17.3203   -9.7654 H   0  0  0  0  0  0  0  0  0  0  0  0
   29.5935   19.5524  -10.8114 H   0  0  0  0  0  0  0  0  0  0  0  0
   25.6003   19.6819   -9.1826 H   0  0  0  0  0  0  0  0  0  0  0  0
   25.9846   17.4743   -8.0815 H   0  0  0  0  0  0  0  0  0  0  0  0
   25.8647   10.0738   -6.7200 H   0  0  0  0  0  0  0  0  0  0  0  0
   24.9321   11.3359   -7.5941 H   0  0  0  0  0  0  0  0  0  0  0  0
   24.3585    9.6337   -7.5941 H   0  0  0  0  0  0  0  0  0  0  0  0
  1  5  2  0
  1  2  1  0
  2  3  2  0
  3  4  1  0
  3  7  1  0
  4  6  2  0
  5  6  1  0
  5 14  1  0
  8  7  1  6
  8 13  1  0
  8  9  1  0
  8 21  1  0
  9 10  1  0
 10 11  1  0
 11 12  1  0
 12 13  1  0
 14 15  1  0
 15 16  2  0
 15 20  1  0
 16 17  1  0
 17 18  2  0
 18 19  1  0
 19 20  2  0
  1 22  1  0
  6 23  1  0
  7 24  1  0
  9 25  1  6
  9 26  1  0
 10 27  1  1
 10 28  1  0
 12 29  1  6
 12 30  1  0
 13 31  1  6
 13 32  1  0
 14 33  1  0
 16 34  1  0
 17 35  1  0
 19 36  1  0
 20 37  1  0
 21 38  1  1
 21 39  1  0
 21 40  1  0
M  END
>  <Pose ID>  (151)
218

>  <Score>  (151)
-5.963319301605225

>  <smiles>  (151)
CC1(Nc2ncc(Nc3ccncc3)cn2)CCOCC1

$$$$

     RDKit          3D

 43 45  0  0  0  0  0  0  0  0999 V2000
   26.4610   14.3740   -7.9740 C   0  0  0  0  0  0  0  0  0  0  0  0
   25.9140   13.1640   -8.3730 N   0  0  0  0  0  0  0  0  0  0  0  0
   26.5110   12.4360   -9.3940 C   0  0  0  0  0  0  0  0  0  0  0  0
   27.6560   12.9230  -10.0150 N   0  0  0  0  0  0  0  0  0  0  0  0
   27.6060   14.8600   -8.5910 C   0  0  0  0  0  0  0  0  0  0  0  0
   28.2030   14.1330   -9.6140 C   0  0  0  0  0  0  0  0  0  0  0  0
   25.7920   11.2830   -9.6060 N   0  0  0  0  0  0  0  0  0  0  0  0
   26.0490   10.0630   -8.8890 C   0  0  2  0  0  0  0  0  0  0  0  0
   27.5870    9.9600   -8.6230 C   0  0  1  0  0  0  0  0  0  0  0  0
   27.9950    8.6310   -8.1040 C   0  0  1  0  0  0  0  0  0  0  0  0
   27.5150    7.5760   -8.9650 O   0  0  0  0  0  0  0  0  0  0  0  0
   26.0770    7.5550   -8.9220 C   0  0  1  0  0  0  0  0  0  0  0  0
   25.5570    8.8180   -9.5710 C   0  0  1  0  0  0  0  0  0  0  0  0
   28.3260   16.0100   -8.3730 N   0  0  0  0  0  0  0  0  0  0  0  0
   27.9240   17.3250   -8.8370 C   0  0  0  0  0  0  0  0  0  0  0  0
   28.8810   17.9340   -9.6420 C   0  0  0  0  0  0  0  0  0  0  0  0
   28.6390   19.1930  -10.1780 C   0  0  0  0  0  0  0  0  0  0  0  0
   27.4390   19.8440   -9.9090 N   0  0  0  0  0  0  0  0  0  0  0  0
   26.4830   19.2350   -9.1050 C   0  0  0  0  0  0  0  0  0  0  0  0
   26.7380   17.9790   -8.5520 C   0  0  0  0  0  0  0  0  0  0  0  0
   25.3180   10.3030   -7.5500 C   0  0  1  0  0  0  0  0  0  0  0  0
   29.6770   19.8540  -11.0510 C   0  0  1  0  0  0  0  0  0  0  0  0
   25.9865   14.9506   -7.1663 H   0  0  0  0  0  0  0  0  0  0  0  0
   29.1090   14.5170  -10.1056 H   0  0  0  0  0  0  0  0  0  0  0  0
   25.0380   11.2936  -10.3076 H   0  0  0  0  0  0  0  0  0  0  0  0
   28.1199   10.1470   -9.5670 H   0  0  0  0  0  0  0  0  0  0  0  0
   27.8402   10.7063   -7.8556 H   0  0  0  0  0  0  0  0  0  0  0  0
   29.0929    8.5846   -8.0542 H   0  0  0  0  0  0  0  0  0  0  0  0
   27.5607    8.4945   -7.1026 H   0  0  0  0  0  0  0  0  0  0  0  0
   25.7026    6.6765   -9.4680 H   0  0  0  0  0  0  0  0  0  0  0  0
   25.7328    7.4991   -7.8787 H   0  0  0  0  0  0  0  0  0  0  0  0
   24.4577    8.8066   -9.5332 H   0  0  0  0  0  0  0  0  0  0  0  0
   25.9272    8.8371  -10.6066 H   0  0  0  0  0  0  0  0  0  0  0  0
   29.2079   15.9337   -7.8463 H   0  0  0  0  0  0  0  0  0  0  0  0
   29.8295   17.4189   -9.8543 H   0  0  0  0  0  0  0  0  0  0  0  0
   25.5274   19.7417   -8.9048 H   0  0  0  0  0  0  0  0  0  0  0  0
   25.9962   17.5089   -7.8896 H   0  0  0  0  0  0  0  0  0  0  0  0
   25.9988   10.0795   -6.7154 H   0  0  0  0  0  0  0  0  0  0  0  0
   24.9974   11.3536   -7.4904 H   0  0  0  0  0  0  0  0  0  0  0  0
   24.4371    9.6469   -7.4904 H   0  0  0  0  0  0  0  0  0  0  0  0
   30.4354   20.3370  -10.4173 H   0  0  0  0  0  0  0  0  0  0  0  0
   30.1586   19.0959  -11.6861 H   0  0  0  0  0  0  0  0  0  0  0  0
   29.1938   20.6111  -11.6861 H   0  0  0  0  0  0  0  0  0  0  0  0
  1  5  2  0
  1  2  1  0
  2  3  2  0
  3  4  1  0
  3  7  1  0
  4  6  2  0
  5  6  1  0
  5 14  1  0
  8  7  1  6
  8 13  1  0
  8  9  1  0
  8 21  1  0
  9 10  1  0
 10 11  1  0
 11 12  1  0
 12 13  1  0
 14 15  1  0
 15 16  2  0
 15 20  1  0
 16 17  1  0
 17 22  1  0
 17 18  2  0
 18 19  1  0
 19 20  2  0
  1 23  1  0
  6 24  1  0
  7 25  1  0
  9 26  1  6
  9 27  1  0
 10 28  1  1
 10 29  1  0
 12 30  1  6
 12 31  1  0
 13 32  1  6
 13 33  1  0
 14 34  1  0
 16 35  1  0
 19 36  1  0
 20 37  1  0
 21 38  1  1
 21 39  1  0
 21 40  1  0
 22 41  1  1
 22 42  1  0
 22 43  1  0
M  END
>  <Pose ID>  (152)
228

>  <Score>  (152)
-5.950618743896484

>  <smiles>  (152)
Cc1cc(Nc2cnc(NC3(C)CCOCC3)nc2)ccn1

$$$$

     RDKit          3D

 43 45  0  0  0  0  0  0  0  0999 V2000
   26.9930   14.5480   -7.4340 C   0  0  0  0  0  0  0  0  0  0  0  0
   26.2800   13.3800   -7.6560 N   0  0  0  0  0  0  0  0  0  0  0  0
   26.4940   12.6480   -8.8170 C   0  0  0  0  0  0  0  0  0  0  0  0
   27.4210   13.0890   -9.7560 N   0  0  0  0  0  0  0  0  0  0  0  0
   27.9210   14.9890   -8.3680 C   0  0  0  0  0  0  0  0  0  0  0  0
   28.1340   14.2580   -9.5310 C   0  0  0  0  0  0  0  0  0  0  0  0
   25.6780   11.5410   -8.8090 N   0  0  0  0  0  0  0  0  0  0  0  0
   26.0700   10.2900   -8.2160 C   0  0  2  0  0  0  0  0  0  0  0  0
   27.6070   10.0990   -8.4350 C   0  0  1  0  0  0  0  0  0  0  0  0
   28.0750    8.7370   -8.0770 C   0  0  1  0  0  0  0  0  0  0  0  0
   27.2950    7.7320   -8.7590 O   0  0  0  0  0  0  0  0  0  0  0  0
   25.9400    7.7860   -8.2770 C   0  0  1  0  0  0  0  0  0  0  0  0
   25.3220    9.0910   -8.7260 C   0  0  1  0  0  0  0  0  0  0  0  0
   28.7400   16.0930   -8.3710 N   0  0  0  0  0  0  0  0  0  0  0  0
   28.2930   17.4390   -8.6780 C   0  0  0  0  0  0  0  0  0  0  0  0
   28.9920   18.0170   -9.7320 C   0  0  0  0  0  0  0  0  0  0  0  0
   28.6720   19.3010  -10.1570 C   0  0  0  0  0  0  0  0  0  0  0  0
   27.6520   20.0080   -9.5280 N   0  0  0  0  0  0  0  0  0  0  0  0
   26.9530   19.4290   -8.4750 C   0  0  0  0  0  0  0  0  0  0  0  0
   27.2910   18.1480   -8.0380 C   0  0  0  0  0  0  0  0  0  0  0  0
   26.7580   15.3440   -6.1740 C   0  0  1  0  0  0  0  0  0  0  0  0
   29.4300   19.9280  -11.3010 C   0  0  1  0  0  0  0  0  0  0  0  0
   28.8677   14.6062  -10.2729 H   0  0  0  0  0  0  0  0  0  0  0  0
   24.7477   11.6103   -9.2456 H   0  0  0  0  0  0  0  0  0  0  0  0
   25.8156   10.3508   -7.1475 H   0  0  0  0  0  0  0  0  0  0  0  0
   27.8361   10.2818   -9.4952 H   0  0  0  0  0  0  0  0  0  0  0  0
   28.1259   10.8108   -7.7762 H   0  0  0  0  0  0  0  0  0  0  0  0
   29.1312    8.6311   -8.3653 H   0  0  0  0  0  0  0  0  0  0  0  0
   27.9588    8.5978   -6.9920 H   0  0  0  0  0  0  0  0  0  0  0  0
   25.3660    6.9427   -8.6886 H   0  0  0  0  0  0  0  0  0  0  0  0
   25.9280    7.7217   -7.1789 H   0  0  0  0  0  0  0  0  0  0  0  0
   24.2875    9.1370   -8.3549 H   0  0  0  0  0  0  0  0  0  0  0  0
   25.3602    9.1171   -9.8250 H   0  0  0  0  0  0  0  0  0  0  0  0
   29.7345   15.9561   -8.1406 H   0  0  0  0  0  0  0  0  0  0  0  0
   29.7983   17.4580  -10.2294 H   0  0  0  0  0  0  0  0  0  0  0  0
   26.1351   19.9798   -7.9874 H   0  0  0  0  0  0  0  0  0  0  0  0
   26.7608   17.7009   -7.1841 H   0  0  0  0  0  0  0  0  0  0  0  0
   26.9461   14.7068   -5.2973 H   0  0  0  0  0  0  0  0  0  0  0  0
   27.4397   16.2071   -6.1530 H   0  0  0  0  0  0  0  0  0  0  0  0
   25.7169   15.6985   -6.1530 H   0  0  0  0  0  0  0  0  0  0  0  0
   30.2201   20.5816  -10.9028 H   0  0  0  0  0  0  0  0  0  0  0  0
   29.8837   19.1377  -11.9171 H   0  0  0  0  0  0  0  0  0  0  0  0
   28.7388   20.5218  -11.9171 H   0  0  0  0  0  0  0  0  0  0  0  0
  1  5  2  0
  1  2  1  0
  1 21  1  0
  2  3  2  0
  3  4  1  0
  3  7  1  0
  4  6  2  0
  5  6  1  0
  5 14  1  0
  7  8  1  0
  8 13  1  0
  8  9  1  0
  9 10  1  0
 10 11  1  0
 11 12  1  0
 12 13  1  0
 14 15  1  0
 15 16  2  0
 15 20  1  0
 16 17  1  0
 17 22  1  0
 17 18  2  0
 18 19  1  0
 19 20  2  0
  6 23  1  0
  7 24  1  0
  8 25  1  1
  9 26  1  6
  9 27  1  0
 10 28  1  1
 10 29  1  0
 12 30  1  6
 12 31  1  0
 13 32  1  6
 13 33  1  0
 14 34  1  0
 16 35  1  0
 19 36  1  0
 20 37  1  0
 21 38  1  1
 21 39  1  0
 21 40  1  0
 22 41  1  1
 22 42  1  0
 22 43  1  0
M  END
>  <Pose ID>  (153)
222

>  <Score>  (153)
-5.948111534118652

>  <smiles>  (153)
Cc1cc(Nc2cnc(NC3CCOCC3)nc2C)ccn1

$$$$

     RDKit          3D

 41 43  0  0  0  0  0  0  0  0999 V2000
   26.7790   14.3830   -7.7690 C   0  0  0  0  0  0  0  0  0  0  0  0
   26.1260   13.1880   -8.0290 N   0  0  0  0  0  0  0  0  0  0  0  0
   26.4670   12.4400   -9.1470 C   0  0  0  0  0  0  0  0  0  0  0  0
   27.4640   12.8920  -10.0070 N   0  0  0  0  0  0  0  0  0  0  0  0
   27.7750   14.8350   -8.6240 C   0  0  0  0  0  0  0  0  0  0  0  0
   28.1160   14.0900   -9.7460 C   0  0  0  0  0  0  0  0  0  0  0  0
   25.6900   11.3080   -9.1880 N   0  0  0  0  0  0  0  0  0  0  0  0
   26.0630   10.0830   -8.5330 C   0  0  2  0  0  0  0  0  0  0  0  0
   27.6200    9.9380   -8.6070 C   0  0  1  0  0  0  0  0  0  0  0  0
   28.0940    8.6000   -8.1770 C   0  0  1  0  0  0  0  0  0  0  0  0
   27.4120    7.5560   -8.9040 O   0  0  0  0  0  0  0  0  0  0  0  0
   26.0180    7.5740   -8.5500 C   0  0  1  0  0  0  0  0  0  0  0  0
   25.4030    8.8490   -9.0810 C   0  0  1  0  0  0  0  0  0  0  0  0
   28.5560   15.9650   -8.5780 N   0  0  0  0  0  0  0  0  0  0  0  0
   28.2360   17.2110   -9.0160 C   0  0  0  0  0  0  0  0  0  0  0  0
   28.9510   17.8630  -10.0150 C   0  0  0  0  0  0  0  0  0  0  0  0
   28.5570   19.1260  -10.4390 C   0  0  0  0  0  0  0  0  0  0  0  0
   27.4480   19.7370   -9.8670 C   0  0  0  0  0  0  0  0  0  0  0  0
   26.7340   19.0860   -8.8680 N   0  0  0  0  0  0  0  0  0  0  0  0
   27.1280   17.8230   -8.4430 C   0  0  0  0  0  0  0  0  0  0  0  0
   27.0960   20.8680  -10.2470 O   0  0  0  0  0  0  0  0  0  0  0  0
   25.6250   19.9050   -8.4530 C   0  0  1  0  0  0  0  0  0  0  0  0
   26.5071   14.9748   -6.8825 H   0  0  0  0  0  0  0  0  0  0  0  0
   28.9018   14.4488  -10.4270 H   0  0  0  0  0  0  0  0  0  0  0  0
   24.8026   11.3377   -9.7100 H   0  0  0  0  0  0  0  0  0  0  0  0
   25.7084   10.1573   -7.4944 H   0  0  0  0  0  0  0  0  0  0  0  0
   27.9397   10.1069   -9.6459 H   0  0  0  0  0  0  0  0  0  0  0  0
   28.0545   10.6795   -7.9205 H   0  0  0  0  0  0  0  0  0  0  0  0
   29.1751    8.5230   -8.3648 H   0  0  0  0  0  0  0  0  0  0  0  0
   27.8818    8.4789   -7.1045 H   0  0  0  0  0  0  0  0  0  0  0  0
   25.5113    6.7048   -8.9946 H   0  0  0  0  0  0  0  0  0  0  0  0
   25.9069    7.5297   -7.4565 H   0  0  0  0  0  0  0  0  0  0  0  0
   24.3382    8.8675   -8.8055 H   0  0  0  0  0  0  0  0  0  0  0  0
   25.5408    8.8551  -10.1723 H   0  0  0  0  0  0  0  0  0  0  0  0
   29.4924   15.8547   -8.1635 H   0  0  0  0  0  0  0  0  0  0  0  0
   29.8281   17.3789  -10.4692 H   0  0  0  0  0  0  0  0  0  0  0  0
   29.1233   19.6425  -11.2280 H   0  0  0  0  0  0  0  0  0  0  0  0
   26.5625   17.3076   -7.6527 H   0  0  0  0  0  0  0  0  0  0  0  0
   25.5830   19.9360   -7.3542 H   0  0  0  0  0  0  0  0  0  0  0  0
   25.7559   20.9249   -8.8438 H   0  0  0  0  0  0  0  0  0  0  0  0
   24.6888   19.4799   -8.8438 H   0  0  0  0  0  0  0  0  0  0  0  0
  1  5  2  0
  1  2  1  0
  2  3  2  0
  3  4  1  0
  3  7  1  0
  4  6  2  0
  5  6  1  0
  5 14  1  0
  7  8  1  0
  8 13  1  0
  8  9  1  0
  9 10  1  0
 10 11  1  0
 11 12  1  0
 12 13  1  0
 14 15  1  0
 15 16  1  0
 15 20  2  0
 16 17  2  0
 17 18  1  0
 18 21  2  0
 18 19  1  0
 19 22  1  0
 19 20  1  0
  1 23  1  0
  6 24  1  0
  7 25  1  0
  8 26  1  1
  9 27  1  6
  9 28  1  0
 10 29  1  1
 10 30  1  0
 12 31  1  6
 12 32  1  0
 13 33  1  6
 13 34  1  0
 14 35  1  0
 16 36  1  0
 17 37  1  0
 20 38  1  0
 22 39  1  1
 22 40  1  0
 22 41  1  0
M  END
>  <Pose ID>  (154)
197

>  <Score>  (154)
-5.939256191253662

>  <smiles>  (154)
Cn1cc(Nc2cnc(NC3CCOCC3)nc2)ccc1=O

$$$$

     RDKit          3D

 40 42  0  0  0  0  0  0  0  0999 V2000
   26.4050   14.3140   -8.0580 C   0  0  0  0  0  0  0  0  0  0  0  0
   25.8860   13.0920   -8.4540 N   0  0  0  0  0  0  0  0  0  0  0  0
   26.5510   12.3330   -9.4070 C   0  0  0  0  0  0  0  0  0  0  0  0
   27.7370   12.8010   -9.9640 N   0  0  0  0  0  0  0  0  0  0  0  0
   27.5890   14.7830   -8.6100 C   0  0  0  0  0  0  0  0  0  0  0  0
   28.2540   14.0260   -9.5660 C   0  0  0  0  0  0  0  0  0  0  0  0
   25.8490   11.1720   -9.6310 N   0  0  0  0  0  0  0  0  0  0  0  0
   26.0560    9.9760   -8.8600 C   0  0  2  0  0  0  0  0  0  0  0  0
   27.5730    9.8850   -8.4870 C   0  0  1  0  0  0  0  0  0  0  0  0
   27.9440    8.5740   -7.8990 C   0  0  1  0  0  0  0  0  0  0  0  0
   27.5240    7.4910   -8.7570 O   0  0  0  0  0  0  0  0  0  0  0  0
   26.0870    7.4680   -8.8110 C   0  0  1  0  0  0  0  0  0  0  0  0
   25.6130    8.7080   -9.5340 C   0  0  1  0  0  0  0  0  0  0  0  0
   28.2930   15.9410   -8.3800 N   0  0  0  0  0  0  0  0  0  0  0  0
   28.0500   17.1630   -8.9430 C   0  0  0  0  0  0  0  0  0  0  0  0
   29.0140   17.8230   -9.6960 C   0  0  0  0  0  0  0  0  0  0  0  0
   28.7320   19.0650  -10.2520 C   0  0  0  0  0  0  0  0  0  0  0  0
   27.4850   19.6470  -10.0560 C   0  0  0  0  0  0  0  0  0  0  0  0
   26.5210   18.9870   -9.3030 N   0  0  0  0  0  0  0  0  0  0  0  0
   26.8030   17.7450   -8.7470 C   0  0  0  0  0  0  0  0  0  0  0  0
   29.5380   14.5350  -10.1720 C   0  0  1  0  0  0  0  0  0  0  0  0
   25.8767   14.9149   -7.3032 H   0  0  0  0  0  0  0  0  0  0  0  0
   25.1451   11.1585  -10.3829 H   0  0  0  0  0  0  0  0  0  0  0  0
   25.4204   10.0601   -7.9662 H   0  0  0  0  0  0  0  0  0  0  0  0
   28.1688   10.0425   -9.3981 H   0  0  0  0  0  0  0  0  0  0  0  0
   27.7740   10.6563   -7.7289 H   0  0  0  0  0  0  0  0  0  0  0  0
   29.0359    8.5314   -7.7723 H   0  0  0  0  0  0  0  0  0  0  0  0
   27.4418    8.4687   -6.9260 H   0  0  0  0  0  0  0  0  0  0  0  0
   25.7506    6.5716   -9.3525 H   0  0  0  0  0  0  0  0  0  0  0  0
   25.6724    7.4447   -7.7924 H   0  0  0  0  0  0  0  0  0  0  0  0
   24.5137    8.6949   -9.5720 H   0  0  0  0  0  0  0  0  0  0  0  0
   26.0544    8.6949  -10.5415 H   0  0  0  0  0  0  0  0  0  0  0  0
   29.0806   15.8824   -7.7189 H   0  0  0  0  0  0  0  0  0  0  0  0
   30.0005   17.3620   -9.8519 H   0  0  0  0  0  0  0  0  0  0  0  0
   29.4955   19.5874  -10.8471 H   0  0  0  0  0  0  0  0  0  0  0  0
   27.2611   20.6297  -10.4967 H   0  0  0  0  0  0  0  0  0  0  0  0
   26.0395   17.2226   -8.1519 H   0  0  0  0  0  0  0  0  0  0  0  0
   30.2375   14.8123   -9.3696 H   0  0  0  0  0  0  0  0  0  0  0  0
   29.9874   13.7470  -10.7942 H   0  0  0  0  0  0  0  0  0  0  0  0
   29.3255   15.4169  -10.7942 H   0  0  0  0  0  0  0  0  0  0  0  0
  1  5  2  0
  1  2  1  0
  2  3  2  0
  3  4  1  0
  3  7  1  0
  4  6  2  0
  5  6  1  0
  5 14  1  0
  6 21  1  0
  7  8  1  0
  8 13  1  0
  8  9  1  0
  9 10  1  0
 10 11  1  0
 11 12  1  0
 12 13  1  0
 14 15  1  0
 15 16  2  0
 15 20  1  0
 16 17  1  0
 17 18  2  0
 18 19  1  0
 19 20  2  0
  1 22  1  0
  7 23  1  0
  8 24  1  1
  9 25  1  6
  9 26  1  0
 10 27  1  1
 10 28  1  0
 12 29  1  6
 12 30  1  0
 13 31  1  6
 13 32  1  0
 14 33  1  0
 16 34  1  0
 17 35  1  0
 18 36  1  0
 20 37  1  0
 21 38  1  1
 21 39  1  0
 21 40  1  0
M  END
>  <Pose ID>  (155)
190

>  <Score>  (155)
-5.9388747215271

>  <smiles>  (155)
Cc1nc(NC2CCOCC2)ncc1Nc1cccnc1

$$$$

     RDKit          3D

 38 41  0  0  0  0  0  0  0  0999 V2000
   28.2910    8.2700  -10.7160 C   0  0  0  0  0  0  0  0  0  0  0  0
   27.7320    7.4600   -9.8410 N   0  0  0  0  0  0  0  0  0  0  0  0
   26.5430    7.8770   -9.2570 C   0  0  0  0  0  0  0  0  0  0  0  0
   25.9250    7.0850   -8.3740 O   0  0  0  0  0  0  0  0  0  0  0  0
   27.7630    9.5000  -11.0940 C   0  0  0  0  0  0  0  0  0  0  0  0
   26.6250    9.9120  -10.5410 C   0  0  0  0  0  0  0  0  0  0  0  0
   25.9890    9.1020   -9.6070 C   0  0  0  0  0  0  0  0  0  0  0  0
   28.4270   10.2830  -12.0270 C   0  0  0  0  0  0  0  0  0  0  0  0
   29.6200    9.8400  -12.5840 C   0  0  0  0  0  0  0  0  0  0  0  0
   30.1480    8.6120  -12.2070 C   0  0  0  0  0  0  0  0  0  0  0  0
   29.5210    7.8300  -11.2540 C   0  0  0  0  0  0  0  0  0  0  0  0
   26.0660    7.6000   -7.0470 C   0  0  1  0  0  0  0  0  0  0  0  0
   24.8100    9.5160   -9.0310 N   0  0  0  0  0  0  0  0  0  0  0  0
   24.4220   10.6920   -8.3170 C   0  0  0  0  0  0  0  0  0  0  0  0
   25.3890   11.6820   -8.4470 N   0  0  0  0  0  0  0  0  0  0  0  0
   25.2130   12.9130   -7.8220 C   0  0  0  0  0  0  0  0  0  0  0  0
   24.0710   13.1510   -7.0660 C   0  0  0  0  0  0  0  0  0  0  0  0
   23.1040   12.1610   -6.9370 N   0  0  0  0  0  0  0  0  0  0  0  0
   23.2800   10.9320   -7.5530 C   0  0  0  0  0  0  0  0  0  0  0  0
   24.1290   14.4480   -6.5460 C   0  0  0  0  0  0  0  0  0  0  0  0
   25.3790   14.9230   -6.8790 N   0  0  0  0  0  0  0  0  0  0  0  0
   26.0900   14.0910   -7.5670 C   0  0  0  0  0  0  0  0  0  0  0  0
   27.8540   11.6160  -12.4360 C   0  0  1  0  0  0  0  0  0  0  0  0
   26.1917   10.8838  -10.8201 H   0  0  0  0  0  0  0  0  0  0  0  0
   30.1463   10.4616  -13.3234 H   0  0  0  0  0  0  0  0  0  0  0  0
   31.0786    8.2561  -12.6732 H   0  0  0  0  0  0  0  0  0  0  0  0
   29.9715    6.8833  -10.9212 H   0  0  0  0  0  0  0  0  0  0  0  0
   25.8481    6.8040   -6.3197 H   0  0  0  0  0  0  0  0  0  0  0  0
   27.0954    7.9588   -6.9004 H   0  0  0  0  0  0  0  0  0  0  0  0
   25.3629    8.4332   -6.9004 H   0  0  0  0  0  0  0  0  0  0  0  0
   24.0452    8.8343   -9.1367 H   0  0  0  0  0  0  0  0  0  0  0  0
   22.2549   12.3411   -6.3825 H   0  0  0  0  0  0  0  0  0  0  0  0
   22.5190   10.1458   -7.4394 H   0  0  0  0  0  0  0  0  0  0  0  0
   23.3424   14.9775   -5.9885 H   0  0  0  0  0  0  0  0  0  0  0  0
   27.1307   14.2251   -7.8972 H   0  0  0  0  0  0  0  0  0  0  0  0
   27.6035   12.1987  -11.5373 H   0  0  0  0  0  0  0  0  0  0  0  0
   28.5953   12.1657  -13.0346 H   0  0  0  0  0  0  0  0  0  0  0  0
   26.9450   11.4563  -13.0346 H   0  0  0  0  0  0  0  0  0  0  0  0
  1 11  1  0
  1  5  1  0
  1  2  2  0
  2  3  1  0
  3  7  2  0
  3  4  1  0
  5  8  1  0
  5  6  2  0
  6  7  1  0
  7 13  1  0
  8  9  2  0
  8 23  1  0
  9 10  1  0
 10 11  2  0
  4 12  1  0
 13 14  1  0
 14 15  1  0
 14 19  2  0
 15 16  2  0
 16 22  1  0
 16 17  1  0
 17 18  1  0
 17 20  2  0
 18 19  1  0
 20 21  1  0
 21 22  2  0
  6 24  1  0
  9 25  1  0
 10 26  1  0
 11 27  1  0
 12 28  1  1
 12 29  1  0
 12 30  1  0
 13 31  1  0
 18 32  1  0
 19 33  1  0
 20 34  1  0
 22 35  1  0
 23 36  1  1
 23 37  1  0
 23 38  1  0
M  END
>  <Pose ID>  (156)
139

>  <Score>  (156)
-5.9334259033203125

>  <smiles>  (156)
COc1nc2cccc(C)c2cc1Nc1c[nH]c2cncc-2n1

$$$$

     RDKit          3D

 41 43  0  0  0  0  0  0  0  0999 V2000
   26.4000   14.3230   -8.0420 C   0  0  0  0  0  0  0  0  0  0  0  0
   25.8740   13.1100   -8.4560 N   0  0  0  0  0  0  0  0  0  0  0  0
   26.5190   12.3760   -9.4420 C   0  0  0  0  0  0  0  0  0  0  0  0
   27.6920   12.8590  -10.0130 N   0  0  0  0  0  0  0  0  0  0  0  0
   27.5710   14.8070   -8.6080 C   0  0  0  0  0  0  0  0  0  0  0  0
   28.2160   14.0750   -9.5970 C   0  0  0  0  0  0  0  0  0  0  0  0
   25.8140   11.2190   -9.6790 N   0  0  0  0  0  0  0  0  0  0  0  0
   26.0390   10.0050   -8.9420 C   0  0  2  0  0  0  0  0  0  0  0  0
   27.5640    9.9080   -8.6050 C   0  0  1  0  0  0  0  0  0  0  0  0
   27.9490    8.5830   -8.0570 C   0  0  1  0  0  0  0  0  0  0  0  0
   27.5120    7.5210   -8.9320 O   0  0  0  0  0  0  0  0  0  0  0  0
   26.0740    7.4970   -8.9560 C   0  0  1  0  0  0  0  0  0  0  0  0
   25.5830    8.7530   -9.6370 C   0  0  1  0  0  0  0  0  0  0  0  0
   28.2790   15.9610   -8.3650 N   0  0  0  0  0  0  0  0  0  0  0  0
   28.0360   17.2000   -8.8870 C   0  0  0  0  0  0  0  0  0  0  0  0
   28.9710   17.8810   -9.6570 C   0  0  0  0  0  0  0  0  0  0  0  0
   28.6660   19.1330  -10.1750 C   0  0  0  0  0  0  0  0  0  0  0  0
   27.4250   19.7060   -9.9230 C   0  0  0  0  0  0  0  0  0  0  0  0
   26.4900   19.0250   -9.1510 C   0  0  0  0  0  0  0  0  0  0  0  0
   26.7870   17.7590   -8.6600 C   0  0  0  0  0  0  0  0  0  0  0  0
   29.6820   19.8720  -11.0110 C   0  0  1  0  0  0  0  0  0  0  0  0
   25.8875   14.9047   -7.2617 H   0  0  0  0  0  0  0  0  0  0  0  0
   29.1418   14.4591  -10.0503 H   0  0  0  0  0  0  0  0  0  0  0  0
   25.0942   11.2223  -10.4158 H   0  0  0  0  0  0  0  0  0  0  0  0
   25.4230   10.0658   -8.0327 H   0  0  0  0  0  0  0  0  0  0  0  0
   28.1394   10.0885   -9.5250 H   0  0  0  0  0  0  0  0  0  0  0  0
   27.7812   10.6613   -7.8334 H   0  0  0  0  0  0  0  0  0  0  0  0
   29.0433    8.5390   -7.9547 H   0  0  0  0  0  0  0  0  0  0  0  0
   27.4678    8.4531   -7.0764 H   0  0  0  0  0  0  0  0  0  0  0  0
   25.7272    6.6138   -9.5125 H   0  0  0  0  0  0  0  0  0  0  0  0
   25.6815    7.4477   -7.9296 H   0  0  0  0  0  0  0  0  0  0  0  0
   24.4832    8.7388   -9.6511 H   0  0  0  0  0  0  0  0  0  0  0  0
   26.0024    8.7656  -10.6538 H   0  0  0  0  0  0  0  0  0  0  0  0
   29.0783   15.8826   -7.7202 H   0  0  0  0  0  0  0  0  0  0  0  0
   29.9534   17.4281   -9.8564 H   0  0  0  0  0  0  0  0  0  0  0  0
   27.1827   20.6972  -10.3338 H   0  0  0  0  0  0  0  0  0  0  0  0
   25.5169   19.4875   -8.9293 H   0  0  0  0  0  0  0  0  0  0  0  0
   26.0303   17.1995   -8.0905 H   0  0  0  0  0  0  0  0  0  0  0  0
   30.3935   20.3895  -10.3507 H   0  0  0  0  0  0  0  0  0  0  0  0
   30.2249   19.1563  -11.6458 H   0  0  0  0  0  0  0  0  0  0  0  0
   29.1682   20.6089  -11.6458 H   0  0  0  0  0  0  0  0  0  0  0  0
  1  5  2  0
  1  2  1  0
  2  3  2  0
  3  4  1  0
  3  7  1  0
  4  6  2  0
  5  6  1  0
  5 14  1  0
  7  8  1  0
  8 13  1  0
  8  9  1  0
  9 10  1  0
 10 11  1  0
 11 12  1  0
 12 13  1  0
 14 15  1  0
 15 16  2  0
 15 20  1  0
 16 17  1  0
 17 21  1  0
 17 18  2  0
 18 19  1  0
 19 20  2  0
  1 22  1  0
  6 23  1  0
  7 24  1  0
  8 25  1  1
  9 26  1  6
  9 27  1  0
 10 28  1  1
 10 29  1  0
 12 30  1  6
 12 31  1  0
 13 32  1  6
 13 33  1  0
 14 34  1  0
 16 35  1  0
 18 36  1  0
 19 37  1  0
 20 38  1  0
 21 39  1  1
 21 40  1  0
 21 41  1  0
M  END
>  <Pose ID>  (157)
185

>  <Score>  (157)
-5.927859783172607

>  <smiles>  (157)
Cc1cccc(Nc2cnc(NC3CCOCC3)nc2)c1

$$$$

     RDKit          3D

 38 40  0  0  0  0  0  0  0  0999 V2000
   26.4040   14.3170   -8.0540 C   0  0  0  0  0  0  0  0  0  0  0  0
   25.8860   13.0950   -8.4530 N   0  0  0  0  0  0  0  0  0  0  0  0
   26.5510   12.3400   -9.4100 C   0  0  0  0  0  0  0  0  0  0  0  0
   27.7350   12.8120   -9.9680 N   0  0  0  0  0  0  0  0  0  0  0  0
   27.5860   14.7900   -8.6070 C   0  0  0  0  0  0  0  0  0  0  0  0
   28.2500   14.0370   -9.5670 C   0  0  0  0  0  0  0  0  0  0  0  0
   25.8500   11.1790   -9.6360 N   0  0  0  0  0  0  0  0  0  0  0  0
   26.0610    9.9810   -8.8700 C   0  0  2  0  0  0  0  0  0  0  0  0
   27.5790    9.8910   -8.5000 C   0  0  1  0  0  0  0  0  0  0  0  0
   27.9530    8.5790   -7.9170 C   0  0  1  0  0  0  0  0  0  0  0  0
   27.5340    7.4980   -8.7780 O   0  0  0  0  0  0  0  0  0  0  0  0
   26.0970    7.4730   -8.8290 C   0  0  1  0  0  0  0  0  0  0  0  0
   25.6190    8.7140   -9.5470 C   0  0  1  0  0  0  0  0  0  0  0  0
   28.2880   15.9480   -8.3740 N   0  0  0  0  0  0  0  0  0  0  0  0
   28.0500   17.1910   -8.9160 C   0  0  0  0  0  0  0  0  0  0  0  0
   29.0010   17.8390   -9.6950 C   0  0  0  0  0  0  0  0  0  0  0  0
   28.7150   19.0790  -10.2520 C   0  0  0  0  0  0  0  0  0  0  0  0
   27.4780   19.6720  -10.0300 C   0  0  0  0  0  0  0  0  0  0  0  0
   26.5270   19.0240   -9.2500 N   0  0  0  0  0  0  0  0  0  0  0  0
   26.8110   17.7890   -8.6890 C   0  0  0  0  0  0  0  0  0  0  0  0
   27.2220   20.7830  -10.5290 O   0  0  0  0  0  0  0  0  0  0  0  0
   25.8763   14.9145   -7.2960 H   0  0  0  0  0  0  0  0  0  0  0  0
   29.1846   14.4118  -10.0098 H   0  0  0  0  0  0  0  0  0  0  0  0
   25.1439   11.1671  -10.3858 H   0  0  0  0  0  0  0  0  0  0  0  0
   25.4268   10.0614   -7.9748 H   0  0  0  0  0  0  0  0  0  0  0  0
   28.1729   10.0523   -9.4117 H   0  0  0  0  0  0  0  0  0  0  0  0
   27.7802   10.6601   -7.7398 H   0  0  0  0  0  0  0  0  0  0  0  0
   29.0451    8.5380   -7.7918 H   0  0  0  0  0  0  0  0  0  0  0  0
   27.4521    8.4695   -6.9438 H   0  0  0  0  0  0  0  0  0  0  0  0
   25.7609    6.5777   -9.3725 H   0  0  0  0  0  0  0  0  0  0  0  0
   25.6849    7.4462   -7.8095 H   0  0  0  0  0  0  0  0  0  0  0  0
   24.5197    8.6988   -9.5826 H   0  0  0  0  0  0  0  0  0  0  0  0
   26.0582    8.7049  -10.5555 H   0  0  0  0  0  0  0  0  0  0  0  0
   29.0812   15.8783   -7.7206 H   0  0  0  0  0  0  0  0  0  0  0  0
   29.9804   17.3700   -9.8706 H   0  0  0  0  0  0  0  0  0  0  0  0
   29.4678   19.5916  -10.8689 H   0  0  0  0  0  0  0  0  0  0  0  0
   25.6092   19.4628   -9.0887 H   0  0  0  0  0  0  0  0  0  0  0  0
   26.0602   17.2813   -8.0656 H   0  0  0  0  0  0  0  0  0  0  0  0
  1  5  2  0
  1  2  1  0
  2  3  2  0
  3  4  1  0
  3  7  1  0
  4  6  2  0
  5  6  1  0
  5 14  1  0
  7  8  1  0
  8 13  1  0
  8  9  1  0
  9 10  1  0
 10 11  1  0
 11 12  1  0
 12 13  1  0
 14 15  1  0
 15 16  1  0
 15 20  2  0
 16 17  2  0
 17 18  1  0
 18 21  2  0
 18 19  1  0
 19 20  1  0
  1 22  1  0
  6 23  1  0
  7 24  1  0
  8 25  1  1
  9 26  1  6
  9 27  1  0
 10 28  1  1
 10 29  1  0
 12 30  1  6
 12 31  1  0
 13 32  1  6
 13 33  1  0
 14 34  1  0
 16 35  1  0
 17 36  1  0
 19 37  1  0
 20 38  1  0
M  END
>  <Pose ID>  (158)
203

>  <Score>  (158)
-5.9113287925720215

>  <smiles>  (158)
O=c1ccc(Nc2cnc(NC3CCOCC3)nc2)c[nH]1

$$$$

     RDKit          3D

 46 48  0  0  0  0  0  0  0  0999 V2000
   26.5340   14.3330   -7.9340 C   0  0  0  0  0  0  0  0  0  0  0  0
   25.9590   13.1190   -8.2720 N   0  0  0  0  0  0  0  0  0  0  0  0
   26.5030   12.3550   -9.2950 C   0  0  0  0  0  0  0  0  0  0  0  0
   27.6250   12.8100   -9.9800 N   0  0  0  0  0  0  0  0  0  0  0  0
   27.6540   14.7890   -8.6150 C   0  0  0  0  0  0  0  0  0  0  0  0
   28.1990   14.0270   -9.6400 C   0  0  0  0  0  0  0  0  0  0  0  0
   25.7660   11.2040   -9.4410 N   0  0  0  0  0  0  0  0  0  0  0  0
   26.0430   10.0020   -8.7000 C   0  0  2  0  0  0  0  0  0  0  0  0
   27.5910    9.8920   -8.5000 C   0  0  1  0  0  0  0  0  0  0  0  0
   28.0090    8.5750   -7.9590 C   0  0  1  0  0  0  0  0  0  0  0  0
   27.4820    7.4990   -8.7670 O   0  0  0  0  0  0  0  0  0  0  0  0
   26.0480    7.4940   -8.6600 C   0  0  1  0  0  0  0  0  0  0  0  0
   25.5110    8.7420   -9.3230 C   0  0  1  0  0  0  0  0  0  0  0  0
   28.3940   15.9380   -8.4630 N   0  0  0  0  0  0  0  0  0  0  0  0
   28.1050   17.1650   -8.9920 C   0  0  0  0  0  0  0  0  0  0  0  0
   28.9870   17.8160   -9.8480 C   0  0  0  0  0  0  0  0  0  0  0  0
   28.6600   19.0620  -10.3670 C   0  0  0  0  0  0  0  0  0  0  0  0
   27.4500   19.6590  -10.0310 C   0  0  0  0  0  0  0  0  0  0  0  0
   26.5680   19.0080   -9.1760 N   0  0  0  0  0  0  0  0  0  0  0  0
   26.8950   17.7610   -8.6570 C   0  0  0  0  0  0  0  0  0  0  0  0
   25.9390   15.1630   -6.8230 C   0  0  1  0  0  0  0  0  0  0  0  0
   27.0940   21.0120  -10.5950 C   0  0  1  0  0  0  0  0  0  0  0  0
   25.8420   14.3700   -5.4930 C   0  0  1  0  0  0  0  0  0  0  0  0
   29.0854   14.3878  -10.1823 H   0  0  0  0  0  0  0  0  0  0  0  0
   24.9822   11.2018  -10.1092 H   0  0  0  0  0  0  0  0  0  0  0  0
   25.5128   10.0898   -7.7402 H   0  0  0  0  0  0  0  0  0  0  0  0
   28.0826   10.0447   -9.4721 H   0  0  0  0  0  0  0  0  0  0  0  0
   27.8857   10.6590   -7.7686 H   0  0  0  0  0  0  0  0  0  0  0  0
   29.1076    8.5187   -7.9551 H   0  0  0  0  0  0  0  0  0  0  0  0
   27.6174    8.4730   -6.9362 H   0  0  0  0  0  0  0  0  0  0  0  0
   25.6419    6.6035   -9.1621 H   0  0  0  0  0  0  0  0  0  0  0  0
   25.7500    7.4727   -7.6013 H   0  0  0  0  0  0  0  0  0  0  0  0
   24.4143    8.7424   -9.2373 H   0  0  0  0  0  0  0  0  0  0  0  0
   25.8358    8.7271  -10.3738 H   0  0  0  0  0  0  0  0  0  0  0  0
   29.2501   15.8672   -7.8947 H   0  0  0  0  0  0  0  0  0  0  0  0
   29.9441   17.3437  -10.1141 H   0  0  0  0  0  0  0  0  0  0  0  0
   29.3581   19.5765  -11.0437 H   0  0  0  0  0  0  0  0  0  0  0  0
   26.1964   17.2459   -7.9813 H   0  0  0  0  0  0  0  0  0  0  0  0
   26.5718   16.0484   -6.6632 H   0  0  0  0  0  0  0  0  0  0  0  0
   24.9203   15.4507   -7.1221 H   0  0  0  0  0  0  0  0  0  0  0  0
   26.9088   21.7159   -9.7702 H   0  0  0  0  0  0  0  0  0  0  0  0
   27.9254   21.3819  -11.2130 H   0  0  0  0  0  0  0  0  0  0  0  0
   26.1882   20.9248  -11.2130 H   0  0  0  0  0  0  0  0  0  0  0  0
   25.9270   15.0650   -4.6447 H   0  0  0  0  0  0  0  0  0  0  0  0
   24.8736   13.8504   -5.4457 H   0  0  0  0  0  0  0  0  0  0  0  0
   26.6566   13.6323   -5.4457 H   0  0  0  0  0  0  0  0  0  0  0  0
  1  5  2  0
  1  2  1  0
  1 21  1  0
  2  3  2  0
  3  4  1  0
  3  7  1  0
  4  6  2  0
  5  6  1  0
  5 14  1  0
  7  8  1  0
  8 13  1  0
  8  9  1  0
  9 10  1  0
 10 11  1  0
 11 12  1  0
 12 13  1  0
 14 15  1  0
 15 16  2  0
 15 20  1  0
 16 17  1  0
 17 18  2  0
 18 22  1  0
 18 19  1  0
 19 20  2  0
 21 23  1  0
  6 24  1  0
  7 25  1  0
  8 26  1  1
  9 27  1  6
  9 28  1  0
 10 29  1  1
 10 30  1  0
 12 31  1  6
 12 32  1  0
 13 33  1  6
 13 34  1  0
 14 35  1  0
 16 36  1  0
 17 37  1  0
 20 38  1  0
 21 39  1  1
 21 40  1  0
 22 41  1  1
 22 42  1  0
 22 43  1  0
 23 44  1  1
 23 45  1  0
 23 46  1  0
M  END
>  <Pose ID>  (159)
195

>  <Score>  (159)
-5.895537853240967

>  <smiles>  (159)
CCc1nc(NC2CCOCC2)ncc1Nc1ccc(C)nc1

$$$$

     RDKit          3D

 30 31  0  0  0  0  0  0  0  0999 V2000
   28.0140    7.4000  -10.4790 C   0  0  0  0  0  0  0  0  0  0  0  0
   27.2590    7.0420   -9.3700 N   0  0  0  0  0  0  0  0  0  0  0  0
   26.4810    7.9910   -8.7190 C   0  0  0  0  0  0  0  0  0  0  0  0
   26.4600    9.3000   -9.1780 C   0  0  0  0  0  0  0  0  0  0  0  0
   25.6290   10.3130   -8.5370 N   0  0  0  0  0  0  0  0  0  0  0  0
   27.9930    8.7110  -10.9380 C   0  0  0  0  0  0  0  0  0  0  0  0
   27.2140    9.6640  -10.2860 C   0  0  0  0  0  0  0  0  0  0  0  0
   26.2330   11.3140   -7.9350 C   0  0  0  0  0  0  0  0  0  0  0  0
   27.4050   11.6140   -7.9520 O   0  0  0  0  0  0  0  0  0  0  0  0
   25.3550   12.3370   -7.0120 C   0  0  0  0  0  0  0  0  0  0  0  0
   24.2160   12.9530   -7.5180 N   0  0  0  0  0  0  0  0  0  0  0  0
   25.7710   12.6020   -5.7130 C   0  0  0  0  0  0  0  0  0  0  0  0
   25.0500   13.4870   -4.9200 N   0  0  0  0  0  0  0  0  0  0  0  0
   23.4950   13.8370   -6.7240 C   0  0  0  0  0  0  0  0  0  0  0  0
   23.8890   14.1010   -5.4410 C   0  0  0  0  0  0  0  0  0  0  0  0
   26.7890   12.0500   -5.2600 O   0  0  0  0  0  0  0  0  0  0  0  0
   23.0850   15.0460   -4.5830 C   0  0  1  0  0  0  0  0  0  0  0  0
   28.8140    9.1030  -12.1410 C   0  0  1  0  0  0  0  0  0  0  0  0
   28.6281    6.6463  -10.9936 H   0  0  0  0  0  0  0  0  0  0  0  0
   25.8828    7.7051   -7.8413 H   0  0  0  0  0  0  0  0  0  0  0  0
   24.6013   10.2464   -8.5553 H   0  0  0  0  0  0  0  0  0  0  0  0
   27.1961   10.7026  -10.6479 H   0  0  0  0  0  0  0  0  0  0  0  0
   25.3598   13.6937   -3.9597 H   0  0  0  0  0  0  0  0  0  0  0  0
   22.5993   14.3289   -7.1311 H   0  0  0  0  0  0  0  0  0  0  0  0
   23.2718   14.8264   -3.5215 H   0  0  0  0  0  0  0  0  0  0  0  0
   23.3825   16.0823   -4.8009 H   0  0  0  0  0  0  0  0  0  0  0  0
   22.0144   14.9183   -4.8009 H   0  0  0  0  0  0  0  0  0  0  0  0
   29.7600    9.5547  -11.8079 H   0  0  0  0  0  0  0  0  0  0  0  0
   29.0273    8.2096  -12.7462 H   0  0  0  0  0  0  0  0  0  0  0  0
   28.2534    9.8306  -12.7462 H   0  0  0  0  0  0  0  0  0  0  0  0
  5  4  1  0
  5  8  1  0
  8  9  2  0
  8 10  1  0
 10 11  2  0
 10 12  1  0
 11 14  1  0
 12 16  2  0
 12 13  1  0
 13 15  1  0
 14 15  2  0
 15 17  1  0
  1  6  2  0
  1  2  1  0
  2  3  2  0
  3  4  1  0
  4  7  2  0
  6 18  1  0
  6  7  1  0
  1 19  1  0
  3 20  1  0
  5 21  1  0
  7 22  1  0
 13 23  1  0
 14 24  1  0
 17 25  1  1
 17 26  1  0
 17 27  1  0
 18 28  1  1
 18 29  1  0
 18 30  1  0
M  END
>  <Pose ID>  (160)
44

>  <Score>  (160)
-5.891847133636475

>  <smiles>  (160)
Cc1cncc(NC(=O)c2ncc(C)[nH]c2=O)c1

$$$$

     RDKit          3D

 40 42  0  0  0  0  0  0  0  0999 V2000
   26.4380   14.3370   -8.0520 C   0  0  0  0  0  0  0  0  0  0  0  0
   25.9140   13.1190   -8.4570 N   0  0  0  0  0  0  0  0  0  0  0  0
   26.5780   12.3630   -9.4140 C   0  0  0  0  0  0  0  0  0  0  0  0
   27.7670   12.8290   -9.9650 N   0  0  0  0  0  0  0  0  0  0  0  0
   27.6260   14.8030   -8.5980 C   0  0  0  0  0  0  0  0  0  0  0  0
   28.2900   14.0480   -9.5570 C   0  0  0  0  0  0  0  0  0  0  0  0
   25.8700   11.2070   -9.6470 N   0  0  0  0  0  0  0  0  0  0  0  0
   26.0690   10.0050   -8.8830 C   0  0  2  0  0  0  0  0  0  0  0  0
   27.5840    9.9040   -8.5060 C   0  0  1  0  0  0  0  0  0  0  0  0
   27.9470    8.5870   -7.9250 C   0  0  1  0  0  0  0  0  0  0  0  0
   27.5240    7.5120   -8.7910 O   0  0  0  0  0  0  0  0  0  0  0  0
   26.0870    7.4970   -8.8490 C   0  0  1  0  0  0  0  0  0  0  0  0
   25.6210    8.7440   -9.5660 C   0  0  1  0  0  0  0  0  0  0  0  0
   28.3350   15.9560   -8.3590 N   0  0  0  0  0  0  0  0  0  0  0  0
   27.9740   17.2600   -8.8840 C   0  0  0  0  0  0  0  0  0  0  0  0
   28.9880   17.8440   -9.6340 C   0  0  0  0  0  0  0  0  0  0  0  0
   28.7910   19.0900  -10.2180 C   0  0  0  0  0  0  0  0  0  0  0  0
   27.5790   19.7520  -10.0520 N   0  0  0  0  0  0  0  0  0  0  0  0
   26.5650   19.1670   -9.3020 C   0  0  0  0  0  0  0  0  0  0  0  0
   26.7740   17.9250   -8.7010 C   0  0  0  0  0  0  0  0  0  0  0  0
   29.5800   14.5530  -10.1550 C   0  0  1  0  0  0  0  0  0  0  0  0
   25.9104   14.9362   -7.2953 H   0  0  0  0  0  0  0  0  0  0  0  0
   25.1677   11.2020  -10.4004 H   0  0  0  0  0  0  0  0  0  0  0  0
   25.4316   10.0865   -7.9902 H   0  0  0  0  0  0  0  0  0  0  0  0
   28.1834   10.0644   -9.4143 H   0  0  0  0  0  0  0  0  0  0  0  0
   27.7864   10.6694   -7.7423 H   0  0  0  0  0  0  0  0  0  0  0  0
   29.0383    8.5381   -7.7956 H   0  0  0  0  0  0  0  0  0  0  0  0
   27.4417    8.4780   -6.9540 H   0  0  0  0  0  0  0  0  0  0  0  0
   25.7474    6.6056   -9.3968 H   0  0  0  0  0  0  0  0  0  0  0  0
   25.6697    7.4699   -7.8316 H   0  0  0  0  0  0  0  0  0  0  0  0
   24.5218    8.7369   -9.6068 H   0  0  0  0  0  0  0  0  0  0  0  0
   26.0645    8.7348  -10.5726 H   0  0  0  0  0  0  0  0  0  0  0  0
   29.1769   15.8903   -7.7692 H   0  0  0  0  0  0  0  0  0  0  0  0
   29.9463   17.3203   -9.7654 H   0  0  0  0  0  0  0  0  0  0  0  0
   29.5935   19.5524  -10.8114 H   0  0  0  0  0  0  0  0  0  0  0  0
   25.6003   19.6819   -9.1826 H   0  0  0  0  0  0  0  0  0  0  0  0
   25.9846   17.4743   -8.0815 H   0  0  0  0  0  0  0  0  0  0  0  0
   30.2762   14.8255   -9.3481 H   0  0  0  0  0  0  0  0  0  0  0  0
   30.0295   13.7645  -10.7764 H   0  0  0  0  0  0  0  0  0  0  0  0
   29.3747   15.4371  -10.7764 H   0  0  0  0  0  0  0  0  0  0  0  0
  1  5  2  0
  1  2  1  0
  2  3  2  0
  3  4  1  0
  3  7  1  0
  4  6  2  0
  5  6  1  0
  5 14  1  0
  6 21  1  0
  7  8  1  0
  8 13  1  0
  8  9  1  0
  9 10  1  0
 10 11  1  0
 11 12  1  0
 12 13  1  0
 14 15  1  0
 15 16  2  0
 15 20  1  0
 16 17  1  0
 17 18  2  0
 18 19  1  0
 19 20  2  0
  1 22  1  0
  7 23  1  0
  8 24  1  1
  9 25  1  6
  9 26  1  0
 10 27  1  1
 10 28  1  0
 12 29  1  6
 12 30  1  0
 13 31  1  6
 13 32  1  0
 14 33  1  0
 16 34  1  0
 17 35  1  0
 19 36  1  0
 20 37  1  0
 21 38  1  1
 21 39  1  0
 21 40  1  0
M  END
>  <Pose ID>  (161)
219

>  <Score>  (161)
-5.885945796966553

>  <smiles>  (161)
Cc1nc(NC2CCOCC2)ncc1Nc1ccncc1

$$$$

     RDKit          3D

 44 46  0  0  0  0  0  0  0  0999 V2000
   26.7160   14.2690   -7.8820 C   0  0  0  0  0  0  0  0  0  0  0  0
   26.1060   13.0780   -8.2430 N   0  0  0  0  0  0  0  0  0  0  0  0
   26.5550   12.3770   -9.3530 C   0  0  0  0  0  0  0  0  0  0  0  0
   27.6170   12.8720  -10.1040 N   0  0  0  0  0  0  0  0  0  0  0  0
   27.7770   14.7640   -8.6290 C   0  0  0  0  0  0  0  0  0  0  0  0
   28.2260   14.0660   -9.7420 C   0  0  0  0  0  0  0  0  0  0  0  0
   25.8010   11.2390   -9.5050 N   0  0  0  0  0  0  0  0  0  0  0  0
   26.1320    9.9940   -8.8650 C   0  0  2  0  0  0  0  0  0  0  0  0
   27.6910    9.8690   -8.8050 C   0  0  1  0  0  0  0  0  0  0  0  0
   28.1450    8.5210   -8.3850 C   0  0  1  0  0  0  0  0  0  0  0  0
   27.5440    7.4980   -9.2070 O   0  0  0  0  0  0  0  0  0  0  0  0
   26.1240    7.4870   -8.9780 C   0  0  1  0  0  0  0  0  0  0  0  0
   25.5400    8.7740   -9.5140 C   0  0  1  0  0  0  0  0  0  0  0  0
   28.5340   15.9000   -8.4720 N   0  0  0  0  0  0  0  0  0  0  0  0
   28.2370   17.1590   -8.8900 C   0  0  0  0  0  0  0  0  0  0  0  0
   29.0270   17.8560   -9.7970 C   0  0  0  0  0  0  0  0  0  0  0  0
   28.6540   19.1290  -10.2080 C   0  0  0  0  0  0  0  0  0  0  0  0
   27.4910   19.7060   -9.7150 C   0  0  0  0  0  0  0  0  0  0  0  0
   26.7010   19.0100   -8.8070 N   0  0  0  0  0  0  0  0  0  0  0  0
   27.0740   17.7360   -8.3960 C   0  0  0  0  0  0  0  0  0  0  0  0
   27.1570   20.8470  -10.0820 O   0  0  0  0  0  0  0  0  0  0  0  0
   25.5480   19.8000   -8.4630 C   0  0  1  0  0  0  0  0  0  0  0  0
   29.5140   19.8870  -11.1900 C   0  0  1  0  0  0  0  0  0  0  0  0
   26.3589   14.8235   -7.0017 H   0  0  0  0  0  0  0  0  0  0  0  0
   29.0639   14.4588  -10.3367 H   0  0  0  0  0  0  0  0  0  0  0  0
   24.9630   11.2788  -10.1026 H   0  0  0  0  0  0  0  0  0  0  0  0
   25.6858   10.0250   -7.8600 H   0  0  0  0  0  0  0  0  0  0  0  0
   28.0991   10.0816   -9.8041 H   0  0  0  0  0  0  0  0  0  0  0  0
   28.0517   10.5880   -8.0547 H   0  0  0  0  0  0  0  0  0  0  0  0
   29.2394    8.4632   -8.4802 H   0  0  0  0  0  0  0  0  0  0  0  0
   27.8420    8.3568   -7.3404 H   0  0  0  0  0  0  0  0  0  0  0  0
   25.6713    6.6297   -9.4977 H   0  0  0  0  0  0  0  0  0  0  0  0
   25.9173    7.3999   -7.9011 H   0  0  0  0  0  0  0  0  0  0  0  0
   24.4550    8.7704   -9.3329 H   0  0  0  0  0  0  0  0  0  0  0  0
   25.7729    8.8227  -10.5880 H   0  0  0  0  0  0  0  0  0  0  0  0
   29.4315   15.7840   -7.9800 H   0  0  0  0  0  0  0  0  0  0  0  0
   29.9476   17.3992  -10.1892 H   0  0  0  0  0  0  0  0  0  0  0  0
   26.4481   17.1843   -7.6792 H   0  0  0  0  0  0  0  0  0  0  0  0
   25.4588   19.8611   -7.3683 H   0  0  0  0  0  0  0  0  0  0  0  0
   25.6597   20.8122   -8.8789 H   0  0  0  0  0  0  0  0  0  0  0  0
   24.6444   19.3304   -8.8789 H   0  0  0  0  0  0  0  0  0  0  0  0
   30.2291   20.5172  -10.6409 H   0  0  0  0  0  0  0  0  0  0  0  0
   30.0637   19.1743  -11.8224 H   0  0  0  0  0  0  0  0  0  0  0  0
   28.8760   20.5219  -11.8224 H   0  0  0  0  0  0  0  0  0  0  0  0
  1  5  2  0
  1  2  1  0
  2  3  2  0
  3  4  1  0
  3  7  1  0
  4  6  2  0
  5  6  1  0
  5 14  1  0
  7  8  1  0
  8 13  1  0
  8  9  1  0
  9 10  1  0
 10 11  1  0
 11 12  1  0
 12 13  1  0
 14 15  1  0
 15 16  1  0
 15 20  2  0
 16 17  2  0
 17 23  1  0
 17 18  1  0
 18 21  2  0
 18 19  1  0
 19 22  1  0
 19 20  1  0
  1 24  1  0
  6 25  1  0
  7 26  1  0
  8 27  1  1
  9 28  1  6
  9 29  1  0
 10 30  1  1
 10 31  1  0
 12 32  1  6
 12 33  1  0
 13 34  1  6
 13 35  1  0
 14 36  1  0
 16 37  1  0
 20 38  1  0
 22 39  1  1
 22 40  1  0
 22 41  1  0
 23 42  1  1
 23 43  1  0
 23 44  1  0
M  END
>  <Pose ID>  (162)
200

>  <Score>  (162)
-5.8830647468566895

>  <smiles>  (162)
Cc1cc(Nc2cnc(NC3CCOCC3)nc2)cn(C)c1=O

$$$$

     RDKit          3D

 35 38  0  0  0  0  0  0  0  0999 V2000
   28.1330    8.0730  -10.4160 C   0  0  0  0  0  0  0  0  0  0  0  0
   27.4500    7.0430   -9.7840 N   0  0  0  0  0  0  0  0  0  0  0  0
   26.3730    7.3280   -8.9510 C   0  0  0  0  0  0  0  0  0  0  0  0
   25.9760    8.6430   -8.7560 N   0  0  0  0  0  0  0  0  0  0  0  0
   26.6560    9.6780   -9.3880 C   0  0  0  0  0  0  0  0  0  0  0  0
   27.7360    9.3910  -10.2200 C   0  0  0  0  0  0  0  0  0  0  0  0
   26.4670   11.0070   -9.3560 N   0  0  0  0  0  0  0  0  0  0  0  0
   27.3010   11.5490  -10.0700 N   0  0  0  0  0  0  0  0  0  0  0  0
   28.0930   10.6750  -10.6310 C   0  0  0  0  0  0  0  0  0  0  0  0
   29.1760   10.7660  -11.5210 C   0  0  0  0  0  0  0  0  0  0  0  0
   29.5670   12.0650  -11.9910 C   0  0  0  0  0  0  0  0  0  0  0  0
   30.5320   12.0100  -12.7600 C   0  0  0  0  0  0  0  0  0  0  0  0
   29.9320    9.8340  -12.1230 O   0  0  0  0  0  0  0  0  0  0  0  0
   30.7820   10.4670  -12.8950 C   0  0  0  0  0  0  0  0  0  0  0  0
   28.8790   13.3460  -11.5910 C   0  0  1  0  0  0  0  0  0  0  0  0
   29.5510   13.9740  -10.4610 N   0  0  0  0  0  0  0  0  0  0  0  0
   28.9550   15.0450   -9.7260 C   0  0  0  0  0  0  0  0  0  0  0  0
   29.2100   16.3650  -10.0820 C   0  0  0  0  0  0  0  0  0  0  0  0
   28.6160   17.4020   -9.3720 C   0  0  0  0  0  0  0  0  0  0  0  0
   27.7700   17.1200   -8.3060 C   0  0  0  0  0  0  0  0  0  0  0  0
   27.5170   15.8010   -7.9500 C   0  0  0  0  0  0  0  0  0  0  0  0
   28.0680   14.7550   -8.6640 C   0  0  0  0  0  0  0  0  0  0  0  0
   28.9872    7.8468  -11.0711 H   0  0  0  0  0  0  0  0  0  0  0  0
   25.8362    6.5108   -8.4469 H   0  0  0  0  0  0  0  0  0  0  0  0
   25.1761    8.8529   -8.1420 H   0  0  0  0  0  0  0  0  0  0  0  0
   31.0804   12.8379  -13.2331 H   0  0  0  0  0  0  0  0  0  0  0  0
   31.5442    9.9944  -13.5319 H   0  0  0  0  0  0  0  0  0  0  0  0
   28.8879   14.0398  -12.4446 H   0  0  0  0  0  0  0  0  0  0  0  0
   27.8465   13.1091  -11.2946 H   0  0  0  0  0  0  0  0  0  0  0  0
   30.4836   13.6359  -10.1836 H   0  0  0  0  0  0  0  0  0  0  0  0
   29.8810   16.5882  -10.9245 H   0  0  0  0  0  0  0  0  0  0  0  0
   28.8156   18.4463   -9.6540 H   0  0  0  0  0  0  0  0  0  0  0  0
   27.3007   17.9410   -7.7441 H   0  0  0  0  0  0  0  0  0  0  0  0
   26.8688   15.5869   -7.0875 H   0  0  0  0  0  0  0  0  0  0  0  0
   27.8208   13.7135   -8.4106 H   0  0  0  0  0  0  0  0  0  0  0  0
 10 13  1  0
 10 11  2  0
 10  9  1  0
 11 12  1  0
 11 15  1  0
 12 14  2  0
 13 14  1  0
  1  6  2  0
  1  2  1  0
  2  3  2  0
  3  4  1  0
  4  5  1  0
  5  6  1  0
  5  7  2  0
  6  9  1  0
  7  8  1  0
  8  9  2  0
 15 16  1  0
 16 17  1  0
 17 18  2  0
 17 22  1  0
 18 19  1  0
 19 20  2  0
 20 21  1  0
 21 22  2  0
  1 23  1  0
  3 24  1  0
  4 25  1  0
 12 26  1  0
 14 27  1  0
 15 28  1  6
 15 29  1  0
 16 30  1  0
 18 31  1  0
 19 32  1  0
 20 33  1  0
 21 34  1  0
 22 35  1  0
M  END
>  <Pose ID>  (163)
36

>  <Score>  (163)
-5.8784332275390625

>  <smiles>  (163)
c1ccc(NCc2ccoc2-c2nnc3[nH]cncc2-3)cc1

$$$$

     RDKit          3D

 33 35  0  0  0  0  0  0  0  0999 V2000
   24.0080   13.4420   -8.1990 C   0  0  0  0  0  0  0  0  0  0  0  0
   24.0720   12.1140   -8.5880 N   0  0  0  0  0  0  0  0  0  0  0  0
   25.0950   11.6840   -9.4220 C   0  0  0  0  0  0  0  0  0  0  0  0
   26.0540   12.5880   -9.8680 N   0  0  0  0  0  0  0  0  0  0  0  0
   24.9670   14.3470   -8.6390 C   0  0  0  0  0  0  0  0  0  0  0  0
   25.9890   13.9170   -9.4770 C   0  0  0  0  0  0  0  0  0  0  0  0
   24.9460   10.3380   -9.6650 N   0  0  0  0  0  0  0  0  0  0  0  0
   25.5160    9.3270   -8.8190 C   0  0  2  0  0  0  0  0  0  0  0  0
   26.8850    9.8520   -8.2750 C   0  0  1  0  0  0  0  0  0  0  0  0
   27.6720    8.8000   -7.5850 C   0  0  1  0  0  0  0  0  0  0  0  0
   27.8250    7.6390   -8.4300 O   0  0  0  0  0  0  0  0  0  0  0  0
   26.5340    7.0420   -8.6420 C   0  0  1  0  0  0  0  0  0  0  0  0
   25.6980    7.9870   -9.4710 C   0  0  1  0  0  0  0  0  0  0  0  0
   25.1180   15.6840   -8.3920 N   0  0  0  0  0  0  0  0  0  0  0  0
   25.1130   16.6620   -9.3480 C   0  0  0  0  0  0  0  0  0  0  0  0
   25.2520   17.8040   -8.6810 C   0  0  0  0  0  0  0  0  0  0  0  0
   25.0670   16.1050   -7.0250 N   0  0  0  0  0  0  0  0  0  0  0  0
   25.0300   17.4290   -7.1830 C   0  0  0  0  0  0  0  0  0  0  0  0
   23.1956   13.7815   -7.5397 H   0  0  0  0  0  0  0  0  0  0  0  0
   26.7470   14.6315   -9.8305 H   0  0  0  0  0  0  0  0  0  0  0  0
   24.4026   10.0428  -10.4887 H   0  0  0  0  0  0  0  0  0  0  0  0
   24.7952    9.1502   -8.0071 H   0  0  0  0  0  0  0  0  0  0  0  0
   27.4755   10.2348   -9.1205 H   0  0  0  0  0  0  0  0  0  0  0  0
   26.6682   10.6397   -7.5384 H   0  0  0  0  0  0  0  0  0  0  0  0
   28.6665    9.1984   -7.3356 H   0  0  0  0  0  0  0  0  0  0  0  0
   27.1388    8.5031   -6.6698 H   0  0  0  0  0  0  0  0  0  0  0  0
   26.6503    6.0861   -9.1737 H   0  0  0  0  0  0  0  0  0  0  0  0
   26.0430    6.8541   -7.6757 H   0  0  0  0  0  0  0  0  0  0  0  0
   24.7075    7.5349   -9.6276 H   0  0  0  0  0  0  0  0  0  0  0  0
   26.2269    8.1502  -10.4216 H   0  0  0  0  0  0  0  0  0  0  0  0
   25.0150   16.5318  -10.4359 H   0  0  0  0  0  0  0  0  0  0  0  0
   25.4752   18.7981   -9.0958 H   0  0  0  0  0  0  0  0  0  0  0  0
   24.8662   18.1538   -6.3719 H   0  0  0  0  0  0  0  0  0  0  0  0
  1  5  2  0
  1  2  1  0
  2  3  2  0
  3  4  1  0
  3  7  1  0
  4  6  2  0
  5  6  1  0
  5 14  1  0
  7  8  1  0
  8 13  1  0
  8  9  1  0
  9 10  1  0
 10 11  1  0
 11 12  1  0
 12 13  1  0
 14 15  1  0
 14 17  1  0
 15 16  2  0
 16 18  1  0
 17 18  2  0
  1 19  1  0
  6 20  1  0
  7 21  1  0
  8 22  1  1
  9 23  1  6
  9 24  1  0
 10 25  1  1
 10 26  1  0
 12 27  1  6
 12 28  1  0
 13 29  1  6
 13 30  1  0
 15 31  1  0
 16 32  1  0
 18 33  1  0
M  END
>  <Pose ID>  (164)
254

>  <Score>  (164)
-5.8755784034729

>  <smiles>  (164)
c1cnn(-c2cnc(NC3CCOCC3)nc2)c1

$$$$

     RDKit          3D

 17 18  0  0  0  0  0  0  0  0999 V2000
   28.2170    7.7480  -10.4330 C   0  0  0  0  0  0  0  0  0  0  0  0
   27.4220    7.0430   -9.5350 N   0  0  0  0  0  0  0  0  0  0  0  0
   26.2450    7.6050   -9.0580 C   0  0  0  0  0  0  0  0  0  0  0  0
   25.8610    8.8740   -9.4800 N   0  0  0  0  0  0  0  0  0  0  0  0
   26.6530    9.5780  -10.3770 C   0  0  0  0  0  0  0  0  0  0  0  0
   27.8340    9.0150  -10.8530 C   0  0  0  0  0  0  0  0  0  0  0  0
   26.4970   10.7970  -10.9220 N   0  0  0  0  0  0  0  0  0  0  0  0
   27.5640   11.0520  -11.7550 C   0  0  0  0  0  0  0  0  0  0  0  0
   28.3030    9.8580  -11.5960 C   0  0  0  0  0  0  0  0  0  0  0  0
   29.6110    9.6380  -12.3140 C   0  0  1  0  0  0  0  0  0  0  0  0
   29.1490    7.3018  -10.8103 H   0  0  0  0  0  0  0  0  0  0  0  0
   25.6171    7.0475   -8.3474 H   0  0  0  0  0  0  0  0  0  0  0  0
   24.9883    9.2915   -9.1266 H   0  0  0  0  0  0  0  0  0  0  0  0
   27.7803   11.9371  -12.3713 H   0  0  0  0  0  0  0  0  0  0  0  0
   30.4159    9.5026  -11.5765 H   0  0  0  0  0  0  0  0  0  0  0  0
   29.5366    8.7398  -12.9446 H   0  0  0  0  0  0  0  0  0  0  0  0
   29.8345   10.5112  -12.9446 H   0  0  0  0  0  0  0  0  0  0  0  0
  1  6  2  0
  1  2  1  0
  2  3  2  0
  3  4  1  0
  4  5  1  0
  5  7  2  0
  5  6  1  0
  6  9  1  0
  7  8  1  0
  8  9  2  0
  9 10  1  0
  1 11  1  0
  3 12  1  0
  4 13  1  0
  8 14  1  0
 10 15  1  1
 10 16  1  0
 10 17  1  0
M  END
>  <Pose ID>  (165)
17

>  <Score>  (165)
-5.874183177947998

>  <smiles>  (165)
Cc1cnc2[nH]cncc1-2

$$$$

     RDKit          3D

 44 46  0  0  0  0  0  0  0  0999 V2000
   25.9190   14.1580   -8.1420 C   0  0  0  0  0  0  0  0  0  0  0  0
   25.6510   12.9460   -8.7600 N   0  0  0  0  0  0  0  0  0  0  0  0
   26.6690   12.2580   -9.4060 C   0  0  0  0  0  0  0  0  0  0  0  0
   27.9560   12.7870   -9.4350 N   0  0  0  0  0  0  0  0  0  0  0  0
   27.2020   14.6870   -8.1670 C   0  0  0  0  0  0  0  0  0  0  0  0
   28.2200   14.0010   -8.8170 C   0  0  0  0  0  0  0  0  0  0  0  0
   26.1640   11.0930   -9.9330 N   0  0  0  0  0  0  0  0  0  0  0  0
   26.1070    9.8620   -9.1930 C   0  0  2  0  0  0  0  0  0  0  0  0
   27.3620    9.7910   -8.2580 C   0  0  1  0  0  0  0  0  0  0  0  0
   27.5330    8.4600   -7.6260 C   0  0  1  0  0  0  0  0  0  0  0  0
   27.5320    7.4150   -8.6230 O   0  0  0  0  0  0  0  0  0  0  0  0
   26.2320    7.3580   -9.2360 C   0  0  1  0  0  0  0  0  0  0  0  0
   26.0210    8.6230  -10.0370 C   0  0  1  0  0  0  0  0  0  0  0  0
   27.7070   15.8490   -7.6330 N   0  0  0  0  0  0  0  0  0  0  0  0
   27.6530   17.1010   -8.1760 C   0  0  0  0  0  0  0  0  0  0  0  0
   26.4030   17.6560   -8.4270 C   0  0  0  0  0  0  0  0  0  0  0  0
   26.3050   18.9210   -8.9940 C   0  0  0  0  0  0  0  0  0  0  0  0
   27.4570   19.6310   -9.3110 N   0  0  0  0  0  0  0  0  0  0  0  0
   28.7060   19.0770   -9.0600 C   0  0  0  0  0  0  0  0  0  0  0  0
   28.8040   17.8120   -8.4930 C   0  0  0  0  0  0  0  0  0  0  0  0
   29.7380   19.7130   -9.3430 O   0  0  0  0  0  0  0  0  0  0  0  0
   24.8120   14.9040   -7.4420 C   0  0  1  0  0  0  0  0  0  0  0  0
   24.1200   14.0350   -6.3590 C   0  0  1  0  0  0  0  0  0  0  0  0
   29.2365   14.4206   -8.8419 H   0  0  0  0  0  0  0  0  0  0  0  0
   25.8110   11.1027  -10.9006 H   0  0  0  0  0  0  0  0  0  0  0  0
   25.1692    9.8788   -8.6184 H   0  0  0  0  0  0  0  0  0  0  0  0
   28.2584   10.0143   -8.8552 H   0  0  0  0  0  0  0  0  0  0  0  0
   27.2161   10.5245   -7.4514 H   0  0  0  0  0  0  0  0  0  0  0  0
   28.4891    8.4390   -7.0825 H   0  0  0  0  0  0  0  0  0  0  0  0
   26.6954    8.2880   -6.9340 H   0  0  0  0  0  0  0  0  0  0  0  0
   26.1739    6.4840   -9.9013 H   0  0  0  0  0  0  0  0  0  0  0  0
   25.4551    7.2688   -8.4624 H   0  0  0  0  0  0  0  0  0  0  0  0
   25.0256    8.5828  -10.5033 H   0  0  0  0  0  0  0  0  0  0  0  0
   26.8203    8.6772  -10.7908 H   0  0  0  0  0  0  0  0  0  0  0  0
   28.1789   15.7660   -6.7213 H   0  0  0  0  0  0  0  0  0  0  0  0
   25.4914   17.0936   -8.1767 H   0  0  0  0  0  0  0  0  0  0  0  0
   25.3161   19.3602   -9.1918 H   0  0  0  0  0  0  0  0  0  0  0  0
   27.3847   20.5682   -9.7321 H   0  0  0  0  0  0  0  0  0  0  0  0
   29.7932   17.3734   -8.2951 H   0  0  0  0  0  0  0  0  0  0  0  0
   25.2349   15.7991   -6.9624 H   0  0  0  0  0  0  0  0  0  0  0  0
   24.0564   15.1751   -8.1941 H   0  0  0  0  0  0  0  0  0  0  0  0
   24.4074   14.3960   -5.3605 H   0  0  0  0  0  0  0  0  0  0  0  0
   23.0284   14.1059   -6.4743 H   0  0  0  0  0  0  0  0  0  0  0  0
   24.4336   12.9870   -6.4743 H   0  0  0  0  0  0  0  0  0  0  0  0
  1  2  2  0
  1  5  1  0
  1 22  1  0
  2  3  1  0
  3  7  1  0
  3  4  2  0
  4  6  1  0
  5  6  2  0
  5 14  1  0
  7  8  1  0
  8 13  1  0
  8  9  1  0
  9 10  1  0
 10 11  1  0
 11 12  1  0
 12 13  1  0
 14 15  1  0
 15 20  2  0
 15 16  1  0
 16 17  2  0
 17 18  1  0
 18 19  1  0
 19 21  2  0
 19 20  1  0
 22 23  1  0
  6 24  1  0
  7 25  1  0
  8 26  1  1
  9 27  1  6
  9 28  1  0
 10 29  1  1
 10 30  1  0
 12 31  1  6
 12 32  1  0
 13 33  1  6
 13 34  1  0
 14 35  1  0
 16 36  1  0
 17 37  1  0
 18 38  1  0
 20 39  1  0
 22 40  1  1
 22 41  1  0
 23 42  1  1
 23 43  1  0
 23 44  1  0
M  END
>  <Pose ID>  (166)
216

>  <Score>  (166)
-5.869683742523193

>  <smiles>  (166)
CCc1nc(NC2CCOCC2)ncc1Nc1cc[nH]c(=O)c1

$$$$

     RDKit          3D

 37 38  0  0  0  0  0  0  0  0999 V2000
   28.1570    7.5790  -10.4420 C   0  0  0  0  0  0  0  0  0  0  0  0
   27.4860    7.1570   -9.3030 N   0  0  0  0  0  0  0  0  0  0  0  0
   26.6520    8.0320   -8.6190 C   0  0  0  0  0  0  0  0  0  0  0  0
   26.4910    9.3330   -9.0750 C   0  0  0  0  0  0  0  0  0  0  0  0
   25.5980   10.2660   -8.3980 N   0  0  0  0  0  0  0  0  0  0  0  0
   27.9960    8.8820  -10.8990 C   0  0  0  0  0  0  0  0  0  0  0  0
   27.1610    9.7590  -10.2130 C   0  0  0  0  0  0  0  0  0  0  0  0
   26.1330   11.3210   -7.8220 C   0  0  0  0  0  0  0  0  0  0  0  0
   27.2700   11.7280   -7.8890 O   0  0  0  0  0  0  0  0  0  0  0  0
   25.2040   12.2610   -6.8600 C   0  0  0  0  0  0  0  0  0  0  0  0
   23.9930   12.7690   -7.3180 N   0  0  0  0  0  0  0  0  0  0  0  0
   25.6490   12.5680   -5.5810 C   0  0  0  0  0  0  0  0  0  0  0  0
   24.8830   13.3850   -4.7580 N   0  0  0  0  0  0  0  0  0  0  0  0
   23.2270   13.5840   -6.4930 C   0  0  0  0  0  0  0  0  0  0  0  0
   23.6500   13.8870   -5.2260 C   0  0  0  0  0  0  0  0  0  0  0  0
   26.7320   12.1130   -5.1720 O   0  0  0  0  0  0  0  0  0  0  0  0
   22.7990   14.7570   -4.3350 C   0  0  1  0  0  0  0  0  0  0  0  0
   28.6590    9.3020  -12.0270 N   0  0  0  0  0  0  0  0  0  0  0  0
   29.6820   10.2600  -12.0020 C   0  0  0  0  0  0  0  0  0  0  0  0
   30.1500   10.6690  -10.9680 O   0  0  0  0  0  0  0  0  0  0  0  0
   30.0790   10.7060  -13.3650 C   0  0  1  0  0  0  0  0  0  0  0  0
   31.0210   11.9510  -12.9940 C   0  0  1  0  0  0  0  0  0  0  0  0
   28.8155    6.8833  -10.9827 H   0  0  0  0  0  0  0  0  0  0  0  0
   26.1199    7.6945   -7.7173 H   0  0  0  0  0  0  0  0  0  0  0  0
   24.5811   10.1043   -8.3716 H   0  0  0  0  0  0  0  0  0  0  0  0
   27.0321   10.7904  -10.5731 H   0  0  0  0  0  0  0  0  0  0  0  0
   25.2134   13.6227   -3.8118 H   0  0  0  0  0  0  0  0  0  0  0  0
   22.2728   13.9892   -6.8608 H   0  0  0  0  0  0  0  0  0  0  0  0
   23.0205   14.5305   -3.2816 H   0  0  0  0  0  0  0  0  0  0  0  0
   23.0200   15.8155   -4.5368 H   0  0  0  0  0  0  0  0  0  0  0  0
   21.7359   14.5594   -4.5368 H   0  0  0  0  0  0  0  0  0  0  0  0
   28.3916    8.8935  -12.9339 H   0  0  0  0  0  0  0  0  0  0  0  0
   30.6322    9.9232  -13.9047 H   0  0  0  0  0  0  0  0  0  0  0  0
   29.2398   10.9461  -14.0344 H   0  0  0  0  0  0  0  0  0  0  0  0
   31.0916   12.0443  -11.9002 H   0  0  0  0  0  0  0  0  0  0  0  0
   32.0248   11.7892  -13.4137 H   0  0  0  0  0  0  0  0  0  0  0  0
   30.5924   12.8730  -13.4137 H   0  0  0  0  0  0  0  0  0  0  0  0
  5  4  1  0
  5  8  1  0
  8  9  2  0
  8 10  1  0
 10 11  2  0
 10 12  1  0
 11 14  1  0
 12 16  2  0
 12 13  1  0
 13 15  1  0
 14 15  2  0
 15 17  1  0
  1  6  2  0
  1  2  1  0
  2  3  2  0
  3  4  1  0
  4  7  2  0
  6 18  1  0
  6  7  1  0
 18 19  1  0
 19 21  1  0
 19 20  2  0
 21 22  1  0
  1 23  1  0
  3 24  1  0
  5 25  1  0
  7 26  1  0
 13 27  1  0
 14 28  1  0
 17 29  1  1
 17 30  1  0
 17 31  1  0
 18 32  1  0
 21 33  1  6
 21 34  1  0
 22 35  1  1
 22 36  1  0
 22 37  1  0
M  END
>  <Pose ID>  (167)
47

>  <Score>  (167)
-5.865448474884033

>  <smiles>  (167)
CCC(=O)Nc1cncc(NC(=O)c2ncc(C)[nH]c2=O)c1

$$$$

     RDKit          3D

 37 39  0  0  0  0  0  0  0  0999 V2000
   26.4050   14.3140   -8.0580 C   0  0  0  0  0  0  0  0  0  0  0  0
   25.8860   13.0920   -8.4540 N   0  0  0  0  0  0  0  0  0  0  0  0
   26.5510   12.3330   -9.4070 C   0  0  0  0  0  0  0  0  0  0  0  0
   27.7370   12.8010   -9.9640 N   0  0  0  0  0  0  0  0  0  0  0  0
   27.5890   14.7830   -8.6100 C   0  0  0  0  0  0  0  0  0  0  0  0
   28.2540   14.0260   -9.5660 C   0  0  0  0  0  0  0  0  0  0  0  0
   25.8490   11.1720   -9.6310 N   0  0  0  0  0  0  0  0  0  0  0  0
   26.0560    9.9760   -8.8600 C   0  0  2  0  0  0  0  0  0  0  0  0
   27.5730    9.8850   -8.4870 C   0  0  1  0  0  0  0  0  0  0  0  0
   27.9440    8.5740   -7.8990 C   0  0  1  0  0  0  0  0  0  0  0  0
   27.5240    7.4910   -8.7570 O   0  0  0  0  0  0  0  0  0  0  0  0
   26.0870    7.4680   -8.8110 C   0  0  1  0  0  0  0  0  0  0  0  0
   25.6130    8.7080   -9.5340 C   0  0  1  0  0  0  0  0  0  0  0  0
   28.2930   15.9410   -8.3800 N   0  0  0  0  0  0  0  0  0  0  0  0
   28.0500   17.1630   -8.9430 C   0  0  0  0  0  0  0  0  0  0  0  0
   29.0140   17.8230   -9.6960 C   0  0  0  0  0  0  0  0  0  0  0  0
   28.7320   19.0650  -10.2520 C   0  0  0  0  0  0  0  0  0  0  0  0
   27.4850   19.6470  -10.0560 C   0  0  0  0  0  0  0  0  0  0  0  0
   26.5210   18.9870   -9.3030 N   0  0  0  0  0  0  0  0  0  0  0  0
   26.8030   17.7450   -8.7470 C   0  0  0  0  0  0  0  0  0  0  0  0
   25.8767   14.9149   -7.3032 H   0  0  0  0  0  0  0  0  0  0  0  0
   29.1905   14.3974  -10.0077 H   0  0  0  0  0  0  0  0  0  0  0  0
   25.1451   11.1585  -10.3829 H   0  0  0  0  0  0  0  0  0  0  0  0
   25.4204   10.0601   -7.9662 H   0  0  0  0  0  0  0  0  0  0  0  0
   28.1688   10.0425   -9.3981 H   0  0  0  0  0  0  0  0  0  0  0  0
   27.7740   10.6563   -7.7289 H   0  0  0  0  0  0  0  0  0  0  0  0
   29.0359    8.5314   -7.7723 H   0  0  0  0  0  0  0  0  0  0  0  0
   27.4418    8.4687   -6.9260 H   0  0  0  0  0  0  0  0  0  0  0  0
   25.7506    6.5716   -9.3525 H   0  0  0  0  0  0  0  0  0  0  0  0
   25.6724    7.4447   -7.7924 H   0  0  0  0  0  0  0  0  0  0  0  0
   24.5137    8.6949   -9.5720 H   0  0  0  0  0  0  0  0  0  0  0  0
   26.0544    8.6949  -10.5415 H   0  0  0  0  0  0  0  0  0  0  0  0
   29.0806   15.8824   -7.7189 H   0  0  0  0  0  0  0  0  0  0  0  0
   30.0005   17.3620   -9.8519 H   0  0  0  0  0  0  0  0  0  0  0  0
   29.4955   19.5874  -10.8471 H   0  0  0  0  0  0  0  0  0  0  0  0
   27.2611   20.6297  -10.4967 H   0  0  0  0  0  0  0  0  0  0  0  0
   26.0395   17.2226   -8.1519 H   0  0  0  0  0  0  0  0  0  0  0  0
  1  5  2  0
  1  2  1  0
  2  3  2  0
  3  4  1  0
  3  7  1  0
  4  6  2  0
  5  6  1  0
  5 14  1  0
  7  8  1  0
  8 13  1  0
  8  9  1  0
  9 10  1  0
 10 11  1  0
 11 12  1  0
 12 13  1  0
 14 15  1  0
 15 16  2  0
 15 20  1  0
 16 17  1  0
 17 18  2  0
 18 19  1  0
 19 20  2  0
  1 21  1  0
  6 22  1  0
  7 23  1  0
  8 24  1  1
  9 25  1  6
  9 26  1  0
 10 27  1  1
 10 28  1  0
 12 29  1  6
 12 30  1  0
 13 31  1  6
 13 32  1  0
 14 33  1  0
 16 34  1  0
 17 35  1  0
 18 36  1  0
 20 37  1  0
M  END
>  <Pose ID>  (168)
189

>  <Score>  (168)
-5.8607964515686035

>  <smiles>  (168)
c1cncc(Nc2cnc(NC3CCOCC3)nc2)c1

$$$$

     RDKit          3D

 40 42  0  0  0  0  0  0  0  0999 V2000
   27.6290    8.4350  -10.2040 C   0  0  0  0  0  0  0  0  0  0  0  0
   27.4050    7.2490   -9.5150 N   0  0  0  0  0  0  0  0  0  0  0  0
   26.5930    7.2410   -8.3870 C   0  0  0  0  0  0  0  0  0  0  0  0
   26.0080    8.4220   -7.9480 N   0  0  0  0  0  0  0  0  0  0  0  0
   28.3970    8.3530  -11.2100 N   0  0  0  0  0  0  0  0  0  0  0  0
   26.2280    9.6080   -8.6370 C   0  0  0  0  0  0  0  0  0  0  0  0
   27.0270    9.6060   -9.7800 C   0  0  0  0  0  0  0  0  0  0  0  0
   28.6310    9.4500  -11.9220 C   0  0  0  0  0  0  0  0  0  0  0  0
   29.8880   10.0370  -11.9570 N   0  0  0  0  0  0  0  0  0  0  0  0
   30.1020   11.1840  -12.7160 C   0  0  0  0  0  0  0  0  0  0  0  0
   29.0530   11.7450  -13.4360 C   0  0  0  0  0  0  0  0  0  0  0  0
   27.7950   11.1560  -13.4010 C   0  0  0  0  0  0  0  0  0  0  0  0
   27.5930    9.9940  -12.6640 C   0  0  0  0  0  0  0  0  0  0  0  0
   29.1530    7.2460  -11.8260 C   0  0  1  0  0  0  0  0  0  0  0  0
   29.2630   12.8810  -14.1830 O   0  0  0  0  0  0  0  0  0  0  0  0
   29.4180   13.9980  -13.3190 C   0  0  1  0  0  0  0  0  0  0  0  0
   28.3030   14.7400  -12.7230 C   0  0  0  0  0  0  0  0  0  0  0  0
   28.0540   14.6890  -11.3560 C   0  0  0  0  0  0  0  0  0  0  0  0
   26.9790   15.3870  -10.8190 C   0  0  0  0  0  0  0  0  0  0  0  0
   26.1510   16.1330  -11.6490 C   0  0  0  0  0  0  0  0  0  0  0  0
   26.3990   16.1840  -13.0160 C   0  0  0  0  0  0  0  0  0  0  0  0
   27.4750   15.4870  -13.5530 N   0  0  0  0  0  0  0  0  0  0  0  0
   25.5010   16.9950  -13.9160 C   0  0  1  0  0  0  0  0  0  0  0  0
   26.4140    6.3017   -7.8432 H   0  0  0  0  0  0  0  0  0  0  0  0
   25.7738   10.5450   -8.2824 H   0  0  0  0  0  0  0  0  0  0  0  0
   27.1788   10.5373  -10.3454 H   0  0  0  0  0  0  0  0  0  0  0  0
   31.0998   11.6461  -12.7462 H   0  0  0  0  0  0  0  0  0  0  0  0
   26.9597   11.6083  -13.9557 H   0  0  0  0  0  0  0  0  0  0  0  0
   26.6076    9.5051  -12.6695 H   0  0  0  0  0  0  0  0  0  0  0  0
   29.5851    6.6133  -11.0367 H   0  0  0  0  0  0  0  0  0  0  0  0
   28.4771    6.6431  -12.4503 H   0  0  0  0  0  0  0  0  0  0  0  0
   29.9605    7.6562  -12.4503 H   0  0  0  0  0  0  0  0  0  0  0  0
   30.0212   13.6376  -12.4727 H   0  0  0  0  0  0  0  0  0  0  0  0
   29.8145   14.7478  -14.0194 H   0  0  0  0  0  0  0  0  0  0  0  0
   28.7079   14.0961  -10.6996 H   0  0  0  0  0  0  0  0  0  0  0  0
   26.7836   15.3490   -9.7372 H   0  0  0  0  0  0  0  0  0  0  0  0
   25.2987   16.6836  -11.2241 H   0  0  0  0  0  0  0  0  0  0  0  0
   24.8233   17.6070  -13.3027 H   0  0  0  0  0  0  0  0  0  0  0  0
   26.1143   17.6513  -14.5509 H   0  0  0  0  0  0  0  0  0  0  0  0
   24.9104   16.3182  -14.5509 H   0  0  0  0  0  0  0  0  0  0  0  0
  1  5  1  0
  1  7  1  0
  1  2  2  0
  2  3  1  0
  3  4  2  0
  4  6  1  0
  5  8  1  0
  5 14  1  0
  6  7  2  0
  8 13  1  0
  8  9  2  0
  9 10  1  0
 10 11  2  0
 11 15  1  0
 11 12  1  0
 12 13  2  0
 15 16  1  0
 16 17  1  0
 17 22  1  0
 17 18  2  0
 18 19  1  0
 19 20  2  0
 20 21  1  0
 21 23  1  0
 21 22  2  0
  3 24  1  0
  6 25  1  0
  7 26  1  0
 10 27  1  0
 12 28  1  0
 13 29  1  0
 14 30  1  1
 14 31  1  0
 14 32  1  0
 16 33  1  1
 16 34  1  0
 18 35  1  0
 19 36  1  0
 20 37  1  0
 23 38  1  1
 23 39  1  0
 23 40  1  0
M  END
>  <Pose ID>  (169)
163

>  <Score>  (169)
-5.84939432144165

>  <smiles>  (169)
Cc1cccc(COc2ccc(N(C)c3ccncn3)nc2)n1

$$$$

     RDKit          3D

 36 38  0  0  0  0  0  0  0  0999 V2000
   23.9890   13.4860   -8.2410 C   0  0  0  0  0  0  0  0  0  0  0  0
   24.0530   12.1500   -8.6010 N   0  0  0  0  0  0  0  0  0  0  0  0
   25.0750   11.7030   -9.4280 C   0  0  0  0  0  0  0  0  0  0  0  0
   26.0320   12.5980   -9.8960 N   0  0  0  0  0  0  0  0  0  0  0  0
   24.9460   14.3820   -8.7030 C   0  0  0  0  0  0  0  0  0  0  0  0
   25.9660   13.9350   -9.5340 C   0  0  0  0  0  0  0  0  0  0  0  0
   24.9260   10.3520   -9.6420 N   0  0  0  0  0  0  0  0  0  0  0  0
   25.4990    9.3600   -8.7760 C   0  0  2  0  0  0  0  0  0  0  0  0
   26.8690    9.8980   -8.2470 C   0  0  1  0  0  0  0  0  0  0  0  0
   27.6590    8.8610   -7.5360 C   0  0  1  0  0  0  0  0  0  0  0  0
   27.8110    7.6830   -8.3560 O   0  0  0  0  0  0  0  0  0  0  0  0
   26.5200    7.0800   -8.5520 C   0  0  1  0  0  0  0  0  0  0  0  0
   25.6810    8.0060   -9.3990 C   0  0  1  0  0  0  0  0  0  0  0  0
   25.0960   15.7240   -8.4850 N   0  0  0  0  0  0  0  0  0  0  0  0
   25.0880   16.6810   -9.4620 C   0  0  0  0  0  0  0  0  0  0  0  0
   25.2270   17.8370   -8.8200 C   0  0  0  0  0  0  0  0  0  0  0  0
   25.0480   16.1740   -7.1270 N   0  0  0  0  0  0  0  0  0  0  0  0
   25.0090   17.4950   -7.3130 C   0  0  0  0  0  0  0  0  0  0  0  0
   24.4880    9.3180   -7.6090 C   0  0  1  0  0  0  0  0  0  0  0  0
   23.1780   13.8392   -7.5872 H   0  0  0  0  0  0  0  0  0  0  0  0
   26.7220   14.6426   -9.9052 H   0  0  0  0  0  0  0  0  0  0  0  0
   24.3805   10.0390  -10.4577 H   0  0  0  0  0  0  0  0  0  0  0  0
   27.4570   10.2629   -9.1020 H   0  0  0  0  0  0  0  0  0  0  0  0
   26.6535   10.7014   -7.5272 H   0  0  0  0  0  0  0  0  0  0  0  0
   28.6537    9.2655   -7.2974 H   0  0  0  0  0  0  0  0  0  0  0  0
   27.1282    8.5832   -6.6135 H   0  0  0  0  0  0  0  0  0  0  0  0
   26.6362    6.1130   -9.0633 H   0  0  0  0  0  0  0  0  0  0  0  0
   26.0316    6.9123   -7.5808 H   0  0  0  0  0  0  0  0  0  0  0  0
   24.6906    7.5496   -9.5432 H   0  0  0  0  0  0  0  0  0  0  0  0
   26.2076    8.1491  -10.3541 H   0  0  0  0  0  0  0  0  0  0  0  0
   24.9880   16.5273  -10.5466 H   0  0  0  0  0  0  0  0  0  0  0  0
   25.4480   18.8220   -9.2569 H   0  0  0  0  0  0  0  0  0  0  0  0
   24.8464   18.2370   -6.5174 H   0  0  0  0  0  0  0  0  0  0  0  0
   25.0309    9.3406   -6.6526 H   0  0  0  0  0  0  0  0  0  0  0  0
   23.8193   10.1891   -7.6717 H   0  0  0  0  0  0  0  0  0  0  0  0
   23.8938    8.3944   -7.6717 H   0  0  0  0  0  0  0  0  0  0  0  0
  1  5  2  0
  1  2  1  0
  2  3  2  0
  3  4  1  0
  3  7  1  0
  4  6  2  0
  5  6  1  0
  5 14  1  0
  8  7  1  6
  8 13  1  0
  8  9  1  0
  8 19  1  0
  9 10  1  0
 10 11  1  0
 11 12  1  0
 12 13  1  0
 14 15  1  0
 14 17  1  0
 15 16  2  0
 16 18  1  0
 17 18  2  0
  1 20  1  0
  6 21  1  0
  7 22  1  0
  9 23  1  6
  9 24  1  0
 10 25  1  1
 10 26  1  0
 12 27  1  6
 12 28  1  0
 13 29  1  6
 13 30  1  0
 15 31  1  0
 16 32  1  0
 18 33  1  0
 19 34  1  1
 19 35  1  0
 19 36  1  0
M  END
>  <Pose ID>  (170)
256

>  <Score>  (170)
-5.84411096572876

>  <smiles>  (170)
CC1(Nc2ncc(-n3cccn3)cn2)CCOCC1

$$$$

     RDKit          3D

 41 43  0  0  0  0  0  0  0  0999 V2000
   26.0790   14.3730   -8.2390 C   0  0  0  0  0  0  0  0  0  0  0  0
   25.7280   13.1320   -8.7460 N   0  0  0  0  0  0  0  0  0  0  0  0
   26.6560   12.3900   -9.4650 C   0  0  0  0  0  0  0  0  0  0  0  0
   27.9360   12.8940   -9.6760 N   0  0  0  0  0  0  0  0  0  0  0  0
   27.3550   14.8780   -8.4450 C   0  0  0  0  0  0  0  0  0  0  0  0
   28.2830   14.1380   -9.1670 C   0  0  0  0  0  0  0  0  0  0  0  0
   26.0800   11.2050   -9.8580 N   0  0  0  0  0  0  0  0  0  0  0  0
   26.1000   10.0210   -9.0440 C   0  0  2  0  0  0  0  0  0  0  0  0
   27.4550    9.9820   -8.2610 C   0  0  1  0  0  0  0  0  0  0  0  0
   27.6860    8.6880   -7.5740 C   0  0  1  0  0  0  0  0  0  0  0  0
   27.5560    7.5870   -8.4990 O   0  0  0  0  0  0  0  0  0  0  0  0
   26.1930    7.5160   -8.9510 C   0  0  1  0  0  0  0  0  0  0  0  0
   25.9020    8.7350   -9.7960 C   0  0  1  0  0  0  0  0  0  0  0  0
   27.9310   16.0590   -8.0450 N   0  0  0  0  0  0  0  0  0  0  0  0
   27.8200   17.2900   -8.6530 C   0  0  0  0  0  0  0  0  0  0  0  0
   28.9340   17.9600   -9.1440 C   0  0  0  0  0  0  0  0  0  0  0  0
   28.7820   19.1860   -9.7810 C   0  0  0  0  0  0  0  0  0  0  0  0
   27.5160   19.7420   -9.9250 C   0  0  0  0  0  0  0  0  0  0  0  0
   26.4020   19.0710   -9.4320 N   0  0  0  0  0  0  0  0  0  0  0  0
   26.5510   17.8500   -8.7930 C   0  0  0  0  0  0  0  0  0  0  0  0
   27.3800   20.8400  -10.4950 O   0  0  0  0  0  0  0  0  0  0  0  0
   24.9490   10.2810   -8.0490 C   0  0  1  0  0  0  0  0  0  0  0  0
   25.3428   14.9604   -7.6707 H   0  0  0  0  0  0  0  0  0  0  0  0
   29.2937   14.5382   -9.3355 H   0  0  0  0  0  0  0  0  0  0  0  0
   25.6140   11.1642  -10.7756 H   0  0  0  0  0  0  0  0  0  0  0  0
   28.2766   10.1538   -8.9720 H   0  0  0  0  0  0  0  0  0  0  0  0
   27.4131   10.7638   -7.4883 H   0  0  0  0  0  0  0  0  0  0  0  0
   28.6995    8.6823   -7.1465 H   0  0  0  0  0  0  0  0  0  0  0  0
   26.9349    8.5715   -6.7788 H   0  0  0  0  0  0  0  0  0  0  0  0
   26.0484    6.6057   -9.5513 H   0  0  0  0  0  0  0  0  0  0  0  0
   25.5116    7.4851   -8.0880 H   0  0  0  0  0  0  0  0  0  0  0  0
   24.8580    8.6847  -10.1390 H   0  0  0  0  0  0  0  0  0  0  0  0
   26.6074    8.7310  -10.6401 H   0  0  0  0  0  0  0  0  0  0  0  0
   28.5112   16.0197   -7.1948 H   0  0  0  0  0  0  0  0  0  0  0  0
   29.9357   17.5203   -9.0286 H   0  0  0  0  0  0  0  0  0  0  0  0
   29.6633   19.7162  -10.1711 H   0  0  0  0  0  0  0  0  0  0  0  0
   25.4641   19.4823   -9.5420 H   0  0  0  0  0  0  0  0  0  0  0  0
   25.6697   17.3240   -8.3972 H   0  0  0  0  0  0  0  0  0  0  0  0
   25.3277   10.1955   -7.0198 H   0  0  0  0  0  0  0  0  0  0  0  0
   24.5474   11.2925   -8.2091 H   0  0  0  0  0  0  0  0  0  0  0  0
   24.1516    9.5403   -8.2091 H   0  0  0  0  0  0  0  0  0  0  0  0
  1  2  2  0
  1  5  1  0
  2  3  1  0
  3  7  1  0
  3  4  2  0
  4  6  1  0
  5  6  2  0
  5 14  1  0
  8  7  1  6
  8 13  1  0
  8  9  1  0
  8 22  1  0
  9 10  1  0
 10 11  1  0
 11 12  1  0
 12 13  1  0
 14 15  1  0
 15 16  1  0
 15 20  2  0
 16 17  2  0
 17 18  1  0
 18 21  2  0
 18 19  1  0
 19 20  1  0
  1 23  1  0
  6 24  1  0
  7 25  1  0
  9 26  1  6
  9 27  1  0
 10 28  1  1
 10 29  1  0
 12 30  1  6
 12 31  1  0
 13 32  1  6
 13 33  1  0
 14 34  1  0
 16 35  1  0
 17 36  1  0
 19 37  1  0
 20 38  1  0
 22 39  1  1
 22 40  1  0
 22 41  1  0
M  END
>  <Pose ID>  (171)
205

>  <Score>  (171)
-5.84192419052124

>  <smiles>  (171)
CC1(Nc2ncc(Nc3ccc(=O)[nH]c3)cn2)CCOCC1

$$$$

     RDKit          3D

 46 48  0  0  0  0  0  0  0  0999 V2000
   25.8640   13.8870   -7.8710 C   0  0  0  0  0  0  0  0  0  0  0  0
   25.5210   12.6820   -8.4660 N   0  0  0  0  0  0  0  0  0  0  0  0
   26.4260   12.0380   -9.2970 C   0  0  0  0  0  0  0  0  0  0  0  0
   27.6750   12.6030   -9.5350 N   0  0  0  0  0  0  0  0  0  0  0  0
   27.1090   14.4510   -8.1060 C   0  0  0  0  0  0  0  0  0  0  0  0
   28.0160   13.8100   -8.9410 C   0  0  0  0  0  0  0  0  0  0  0  0
   25.8640   10.8720   -9.7610 N   0  0  0  0  0  0  0  0  0  0  0  0
   25.9660    9.6240   -9.0550 C   0  0  2  0  0  0  0  0  0  0  0  0
   27.3660    9.5640   -8.3580 C   0  0  1  0  0  0  0  0  0  0  0  0
   27.6780    8.2250   -7.8010 C   0  0  1  0  0  0  0  0  0  0  0  0
   27.5240    7.2030   -8.8100 O   0  0  0  0  0  0  0  0  0  0  0  0
   26.1390    7.1250   -9.1890 C   0  0  1  0  0  0  0  0  0  0  0  0
   25.7630    8.4010   -9.9060 C   0  0  1  0  0  0  0  0  0  0  0  0
   27.6740   15.6140   -7.6350 N   0  0  0  0  0  0  0  0  0  0  0  0
   27.4970   16.9020   -8.0770 C   0  0  0  0  0  0  0  0  0  0  0  0
   28.5580   17.6160   -8.6230 C   0  0  0  0  0  0  0  0  0  0  0  0
   28.3420   18.8810   -9.1530 C   0  0  0  0  0  0  0  0  0  0  0  0
   27.0680   19.4350   -9.1370 N   0  0  0  0  0  0  0  0  0  0  0  0
   26.0080   18.7220   -8.5910 C   0  0  0  0  0  0  0  0  0  0  0  0
   26.2220   17.4550   -8.0600 C   0  0  0  0  0  0  0  0  0  0  0  0
   24.8790    9.6190   -7.9410 C   0  0  1  0  0  0  0  0  0  0  0  0
   29.3690   14.4230   -9.1990 C   0  0  1  0  0  0  0  0  0  0  0  0
   24.9530   10.7110   -6.8850 C   0  0  1  0  0  0  0  0  0  0  0  0
   25.1466   14.3967   -7.2110 H   0  0  0  0  0  0  0  0  0  0  0  0
   25.3481   10.8937  -10.6522 H   0  0  0  0  0  0  0  0  0  0  0  0
   28.1375    9.8247   -9.0975 H   0  0  0  0  0  0  0  0  0  0  0  0
   27.3466   10.2740   -7.5180 H   0  0  0  0  0  0  0  0  0  0  0  0
   28.7157    8.2187   -7.4363 H   0  0  0  0  0  0  0  0  0  0  0  0
   26.9817    8.0146   -6.9758 H   0  0  0  0  0  0  0  0  0  0  0  0
   25.9856    6.2651   -9.8577 H   0  0  0  0  0  0  0  0  0  0  0  0
   25.5112    6.9973   -8.2948 H   0  0  0  0  0  0  0  0  0  0  0  0
   24.7028    8.3441  -10.1938 H   0  0  0  0  0  0  0  0  0  0  0  0
   26.4176    8.4944  -10.7850 H   0  0  0  0  0  0  0  0  0  0  0  0
   28.3196   15.5029   -6.8402 H   0  0  0  0  0  0  0  0  0  0  0  0
   29.5674   17.1791   -8.6350 H   0  0  0  0  0  0  0  0  0  0  0  0
   29.1809   19.4455   -9.5862 H   0  0  0  0  0  0  0  0  0  0  0  0
   24.9990   19.1600   -8.5788 H   0  0  0  0  0  0  0  0  0  0  0  0
   25.3830   16.8908   -7.6268 H   0  0  0  0  0  0  0  0  0  0  0  0
   23.8999    9.7039   -8.4352 H   0  0  0  0  0  0  0  0  0  0  0  0
   25.0468    8.6825   -7.3889 H   0  0  0  0  0  0  0  0  0  0  0  0
   29.8597   14.6453   -8.2400 H   0  0  0  0  0  0  0  0  0  0  0  0
   29.9879   13.7174   -9.7726 H   0  0  0  0  0  0  0  0  0  0  0  0
   29.2466   15.3536   -9.7726 H   0  0  0  0  0  0  0  0  0  0  0  0
   24.9222   10.2558   -5.8841 H   0  0  0  0  0  0  0  0  0  0  0  0
   25.8913   11.2728   -7.0036 H   0  0  0  0  0  0  0  0  0  0  0  0
   24.0991   11.3942   -7.0036 H   0  0  0  0  0  0  0  0  0  0  0  0
  1  2  2  0
  1  5  1  0
  2  3  1  0
  3  7  1  0
  3  4  2  0
  4  6  1  0
  5  6  2  0
  5 14  1  0
  6 22  1  0
  8  7  1  6
  8 13  1  0
  8  9  1  0
  8 21  1  0
  9 10  1  0
 10 11  1  0
 11 12  1  0
 12 13  1  0
 21 23  1  0
 14 15  1  0
 15 16  2  0
 15 20  1  0
 16 17  1  0
 17 18  2  0
 18 19  1  0
 19 20  2  0
  1 24  1  0
  7 25  1  0
  9 26  1  6
  9 27  1  0
 10 28  1  1
 10 29  1  0
 12 30  1  6
 12 31  1  0
 13 32  1  6
 13 33  1  0
 14 34  1  0
 16 35  1  0
 17 36  1  0
 19 37  1  0
 20 38  1  0
 21 39  1  6
 21 40  1  0
 22 41  1  1
 22 42  1  0
 22 43  1  0
 23 44  1  1
 23 45  1  0
 23 46  1  0
M  END
>  <Pose ID>  (172)
240

>  <Score>  (172)
-5.833703517913818

>  <smiles>  (172)
CCC1(Nc2ncc(Nc3ccncc3)c(C)n2)CCOCC1

$$$$

     RDKit          3D

 46 48  0  0  0  0  0  0  0  0999 V2000
   25.9970   13.8900   -7.7170 C   0  0  0  0  0  0  0  0  0  0  0  0
   25.5820   12.6960   -8.2880 N   0  0  0  0  0  0  0  0  0  0  0  0
   26.3880   12.0570   -9.2190 C   0  0  0  0  0  0  0  0  0  0  0  0
   27.6100   12.6160   -9.5800 N   0  0  0  0  0  0  0  0  0  0  0  0
   27.2150   14.4490   -8.0750 C   0  0  0  0  0  0  0  0  0  0  0  0
   28.0230   13.8120   -9.0090 C   0  0  0  0  0  0  0  0  0  0  0  0
   25.7700   10.9030   -9.6360 N   0  0  0  0  0  0  0  0  0  0  0  0
   25.9360    9.6430   -8.9610 C   0  0  2  0  0  0  0  0  0  0  0  0
   27.4010    9.5640   -8.4170 C   0  0  1  0  0  0  0  0  0  0  0  0
   27.7570    8.2150   -7.9140 C   0  0  1  0  0  0  0  0  0  0  0  0
   27.4890    7.2090   -8.9140 O   0  0  0  0  0  0  0  0  0  0  0  0
   26.0710    7.1460   -9.1460 C   0  0  1  0  0  0  0  0  0  0  0  0
   25.6320    8.4340   -9.8020 C   0  0  1  0  0  0  0  0  0  0  0  0
   27.8370   15.6010   -7.6510 N   0  0  0  0  0  0  0  0  0  0  0  0
   27.6250   16.8960   -8.0550 C   0  0  0  0  0  0  0  0  0  0  0  0
   28.6290   17.6090   -8.7000 C   0  0  0  0  0  0  0  0  0  0  0  0
   28.3690   18.8830   -9.1880 C   0  0  0  0  0  0  0  0  0  0  0  0
   27.1090   19.4460   -9.0300 N   0  0  0  0  0  0  0  0  0  0  0  0
   26.1060   18.7340   -8.3850 C   0  0  0  0  0  0  0  0  0  0  0  0
   26.3640   17.4580   -7.8960 C   0  0  0  0  0  0  0  0  0  0  0  0
   24.9720    9.6310   -7.7390 C   0  0  1  0  0  0  0  0  0  0  0  0
   29.3470   14.4190   -9.4010 C   0  0  1  0  0  0  0  0  0  0  0  0
   24.7370   19.3450   -8.2150 C   0  0  1  0  0  0  0  0  0  0  0  0
   25.3581   14.3953   -6.9778 H   0  0  0  0  0  0  0  0  0  0  0  0
   25.1623   10.9413  -10.4667 H   0  0  0  0  0  0  0  0  0  0  0  0
   28.0924    9.8292   -9.2304 H   0  0  0  0  0  0  0  0  0  0  0  0
   27.4775   10.2629   -7.5711 H   0  0  0  0  0  0  0  0  0  0  0  0
   28.8271    8.1954   -7.6601 H   0  0  0  0  0  0  0  0  0  0  0  0
   27.1488    7.9984   -7.0234 H   0  0  0  0  0  0  0  0  0  0  0  0
   25.8409    6.2968   -9.8062 H   0  0  0  0  0  0  0  0  0  0  0  0
   25.5400    7.0101   -8.1923 H   0  0  0  0  0  0  0  0  0  0  0  0
   24.5467    8.3891   -9.9755 H   0  0  0  0  0  0  0  0  0  0  0  0
   26.1892    8.5349  -10.7450 H   0  0  0  0  0  0  0  0  0  0  0  0
   28.5622   15.4742   -6.9306 H   0  0  0  0  0  0  0  0  0  0  0  0
   29.6277   17.1649   -8.8237 H   0  0  0  0  0  0  0  0  0  0  0  0
   29.1622   19.4472   -9.7005 H   0  0  0  0  0  0  0  0  0  0  0  0
   25.5706   16.8940   -7.3838 H   0  0  0  0  0  0  0  0  0  0  0  0
   25.5591    9.6383   -6.8088 H   0  0  0  0  0  0  0  0  0  0  0  0
   24.3267   10.5212   -7.7723 H   0  0  0  0  0  0  0  0  0  0  0  0
   24.3490    8.7250   -7.7723 H   0  0  0  0  0  0  0  0  0  0  0  0
   29.9139   14.6789   -8.4948 H   0  0  0  0  0  0  0  0  0  0  0  0
   29.9207   13.6940   -9.9970 H   0  0  0  0  0  0  0  0  0  0  0  0
   29.1721   15.3268   -9.9970 H   0  0  0  0  0  0  0  0  0  0  0  0
   24.5110   19.4459   -7.1432 H   0  0  0  0  0  0  0  0  0  0  0  0
   24.7170   20.3375   -8.6889 H   0  0  0  0  0  0  0  0  0  0  0  0
   23.9849   18.6971   -8.6889 H   0  0  0  0  0  0  0  0  0  0  0  0
  1  2  2  0
  1  5  1  0
  2  3  1  0
  3  7  1  0
  3  4  2  0
  4  6  1  0
  5  6  2  0
  5 14  1  0
  6 22  1  0
  8  7  1  6
  8 13  1  0
  8  9  1  0
  8 21  1  0
  9 10  1  0
 10 11  1  0
 11 12  1  0
 12 13  1  0
 14 15  1  0
 15 16  2  0
 15 20  1  0
 16 17  1  0
 17 18  2  0
 18 19  1  0
 19 23  1  0
 19 20  2  0
  1 24  1  0
  7 25  1  0
  9 26  1  6
  9 27  1  0
 10 28  1  1
 10 29  1  0
 12 30  1  6
 12 31  1  0
 13 32  1  6
 13 33  1  0
 14 34  1  0
 16 35  1  0
 17 36  1  0
 20 37  1  0
 21 38  1  1
 21 39  1  0
 21 40  1  0
 22 41  1  1
 22 42  1  0
 22 43  1  0
 23 44  1  1
 23 45  1  0
 23 46  1  0
M  END
>  <Pose ID>  (173)
238

>  <Score>  (173)
-5.812479496002197

>  <smiles>  (173)
Cc1cc(Nc2cnc(NC3(C)CCOCC3)nc2C)ccn1

$$$$

     RDKit          3D

 31 32  0  0  0  0  0  0  0  0999 V2000
   27.6810    8.4160  -10.2710 C   0  0  0  0  0  0  0  0  0  0  0  0
   27.4860    7.1970   -9.6350 N   0  0  0  0  0  0  0  0  0  0  0  0
   26.7510    7.1370   -8.4580 C   0  0  0  0  0  0  0  0  0  0  0  0
   26.2100    8.2970   -7.9150 N   0  0  0  0  0  0  0  0  0  0  0  0
   28.3800    8.3820  -11.3280 N   0  0  0  0  0  0  0  0  0  0  0  0
   26.4050    9.5160   -8.5520 C   0  0  0  0  0  0  0  0  0  0  0  0
   27.1280    9.5690   -9.7440 C   0  0  0  0  0  0  0  0  0  0  0  0
   28.5840    9.5150  -11.9920 C   0  0  0  0  0  0  0  0  0  0  0  0
   29.8470   10.0880  -12.0780 N   0  0  0  0  0  0  0  0  0  0  0  0
   30.0270   11.2730  -12.7850 C   0  0  0  0  0  0  0  0  0  0  0  0
   28.9420   11.8840  -13.4020 C   0  0  0  0  0  0  0  0  0  0  0  0
   27.6790   11.3120  -13.3150 C   0  0  0  0  0  0  0  0  0  0  0  0
   27.5080   10.1110  -12.6330 C   0  0  0  0  0  0  0  0  0  0  0  0
   29.0790    7.3020  -12.0540 C   0  0  1  0  0  0  0  0  0  0  0  0
   29.1200   13.0580  -14.1000 O   0  0  0  0  0  0  0  0  0  0  0  0
   30.3350   13.7930  -14.0490 C   0  0  1  0  0  0  0  0  0  0  0  0
   25.8370   10.7800   -7.9560 C   0  0  1  0  0  0  0  0  0  0  0  0
   26.5968    6.1710   -7.9550 H   0  0  0  0  0  0  0  0  0  0  0  0
   27.2584   10.5288  -10.2653 H   0  0  0  0  0  0  0  0  0  0  0  0
   31.0271   11.7256  -12.8554 H   0  0  0  0  0  0  0  0  0  0  0  0
   26.8161   11.8072  -13.7841 H   0  0  0  0  0  0  0  0  0  0  0  0
   26.5176    9.6334  -12.6022 H   0  0  0  0  0  0  0  0  0  0  0  0
   29.5295    6.6060  -11.3310 H   0  0  0  0  0  0  0  0  0  0  0  0
   28.3600    6.7599  -12.6858 H   0  0  0  0  0  0  0  0  0  0  0  0
   29.8680    7.7359  -12.6858 H   0  0  0  0  0  0  0  0  0  0  0  0
   30.6167   13.9634  -12.9994 H   0  0  0  0  0  0  0  0  0  0  0  0
   31.1293   13.2238  -14.5541 H   0  0  0  0  0  0  0  0  0  0  0  0
   30.1996   14.7608  -14.5541 H   0  0  0  0  0  0  0  0  0  0  0  0
   25.8669   10.7135   -6.8584 H   0  0  0  0  0  0  0  0  0  0  0  0
   26.4342   11.6423   -8.2875 H   0  0  0  0  0  0  0  0  0  0  0  0
   24.7957   10.9060   -8.2875 H   0  0  0  0  0  0  0  0  0  0  0  0
  1  5  1  0
  1  7  1  0
  1  2  2  0
  2  3  1  0
  3  4  2  0
  4  6  1  0
  5 14  1  0
  5  8  1  0
  6  7  2  0
  6 17  1  0
  8 13  1  0
  8  9  2  0
  9 10  1  0
 10 11  2  0
 11 15  1  0
 11 12  1  0
 12 13  2  0
 15 16  1  0
  3 18  1  0
  7 19  1  0
 10 20  1  0
 12 21  1  0
 13 22  1  0
 14 23  1  1
 14 24  1  0
 14 25  1  0
 16 26  1  1
 16 27  1  0
 16 28  1  0
 17 29  1  1
 17 30  1  0
 17 31  1  0
M  END
>  <Pose ID>  (174)
173

>  <Score>  (174)
-5.804162502288818

>  <smiles>  (174)
COc1ccc(N(C)c2cc(C)ncn2)nc1

$$$$

     RDKit          3D

 46 48  0  0  0  0  0  0  0  0999 V2000
   25.8170   13.8180   -7.8120 C   0  0  0  0  0  0  0  0  0  0  0  0
   25.4790   12.6150   -8.4090 N   0  0  0  0  0  0  0  0  0  0  0  0
   26.3930   11.9680   -9.2310 C   0  0  0  0  0  0  0  0  0  0  0  0
   27.6460   12.5290   -9.4540 N   0  0  0  0  0  0  0  0  0  0  0  0
   27.0670   14.3790   -8.0310 C   0  0  0  0  0  0  0  0  0  0  0  0
   27.9830   13.7350   -8.8550 C   0  0  0  0  0  0  0  0  0  0  0  0
   25.8340   10.8030   -9.7010 N   0  0  0  0  0  0  0  0  0  0  0  0
   25.9260    9.5530   -8.9940 C   0  0  2  0  0  0  0  0  0  0  0  0
   27.3150    9.4920   -8.2780 C   0  0  1  0  0  0  0  0  0  0  0  0
   27.6170    8.1520   -7.7190 C   0  0  1  0  0  0  0  0  0  0  0  0
   27.4740    7.1300   -8.7300 O   0  0  0  0  0  0  0  0  0  0  0  0
   26.0940    7.0540   -9.1260 C   0  0  1  0  0  0  0  0  0  0  0  0
   25.7290    8.3310   -9.8460 C   0  0  1  0  0  0  0  0  0  0  0  0
   27.6280   15.5410   -7.5540 N   0  0  0  0  0  0  0  0  0  0  0  0
   27.4590   16.8290   -7.9980 C   0  0  0  0  0  0  0  0  0  0  0  0
   28.5280   17.5390   -8.5320 C   0  0  0  0  0  0  0  0  0  0  0  0
   28.3230   18.8060   -9.0640 C   0  0  0  0  0  0  0  0  0  0  0  0
   27.0500   19.3630   -9.0630 N   0  0  0  0  0  0  0  0  0  0  0  0
   25.9810   18.6520   -8.5300 C   0  0  0  0  0  0  0  0  0  0  0  0
   26.1870   17.3850   -7.9960 C   0  0  0  0  0  0  0  0  0  0  0  0
   29.3400   14.3460   -9.0990 C   0  0  1  0  0  0  0  0  0  0  0  0
   29.3790   15.0760  -10.4390 C   0  0  1  0  0  0  0  0  0  0  0  0
   29.7470   14.1480  -11.6100 C   0  0  1  0  0  0  0  0  0  0  0  0
   25.0923   14.3304   -7.1622 H   0  0  0  0  0  0  0  0  0  0  0  0
   25.3276   10.8260  -10.5976 H   0  0  0  0  0  0  0  0  0  0  0  0
   25.0947    9.5333   -8.2739 H   0  0  0  0  0  0  0  0  0  0  0  0
   28.0971    9.7531   -9.0061 H   0  0  0  0  0  0  0  0  0  0  0  0
   27.2851   10.2014   -7.4378 H   0  0  0  0  0  0  0  0  0  0  0  0
   28.6500    8.1434   -7.3411 H   0  0  0  0  0  0  0  0  0  0  0  0
   26.9091    7.9426   -6.9035 H   0  0  0  0  0  0  0  0  0  0  0  0
   25.9477    6.1950   -9.7974 H   0  0  0  0  0  0  0  0  0  0  0  0
   25.4549    6.9260   -8.2399 H   0  0  0  0  0  0  0  0  0  0  0  0
   24.6717    8.2768  -10.1447 H   0  0  0  0  0  0  0  0  0  0  0  0
   26.3935    8.4228  -10.7178 H   0  0  0  0  0  0  0  0  0  0  0  0
   28.2638   15.4290   -6.7514 H   0  0  0  0  0  0  0  0  0  0  0  0
   29.5357   17.0980   -8.5334 H   0  0  0  0  0  0  0  0  0  0  0  0
   29.1688   19.3684   -9.4862 H   0  0  0  0  0  0  0  0  0  0  0  0
   24.9727   19.0916   -8.5307 H   0  0  0  0  0  0  0  0  0  0  0  0
   25.3419   16.8230   -7.5718 H   0  0  0  0  0  0  0  0  0  0  0  0
   29.5625   15.0611   -8.2933 H   0  0  0  0  0  0  0  0  0  0  0  0
   30.0887   13.5403   -9.1172 H   0  0  0  0  0  0  0  0  0  0  0  0
   28.3869   15.5101  -10.6323 H   0  0  0  0  0  0  0  0  0  0  0  0
   30.1563   15.8515  -10.3725 H   0  0  0  0  0  0  0  0  0  0  0  0
   30.1256   13.1932  -11.2162 H   0  0  0  0  0  0  0  0  0  0  0  0
   28.8543   13.9626  -12.2254 H   0  0  0  0  0  0  0  0  0  0  0  0
   30.5241   14.6248  -12.2254 H   0  0  0  0  0  0  0  0  0  0  0  0
  1  2  2  0
  1  5  1  0
  2  3  1  0
  3  7  1  0
  3  4  2  0
  4  6  1  0
  5  6  2  0
  5 14  1  0
  6 21  1  0
  7  8  1  0
  8 13  1  0
  8  9  1  0
  9 10  1  0
 10 11  1  0
 11 12  1  0
 12 13  1  0
 14 15  1  0
 15 16  2  0
 15 20  1  0
 16 17  1  0
 17 18  2  0
 18 19  1  0
 19 20  2  0
 21 22  1  0
 22 23  1  0
  1 24  1  0
  7 25  1  0
  8 26  1  1
  9 27  1  6
  9 28  1  0
 10 29  1  1
 10 30  1  0
 12 31  1  6
 12 32  1  0
 13 33  1  6
 13 34  1  0
 14 35  1  0
 16 36  1  0
 17 37  1  0
 19 38  1  0
 20 39  1  0
 21 40  1  1
 21 41  1  0
 22 42  1  6
 22 43  1  0
 23 44  1  1
 23 45  1  0
 23 46  1  0
M  END
>  <Pose ID>  (175)
243

>  <Score>  (175)
-5.78782320022583

>  <smiles>  (175)
CCCc1nc(NC2CCOCC2)ncc1Nc1ccncc1

$$$$

     RDKit          3D

 17 18  0  0  0  0  0  0  0  0999 V2000
   28.1530    7.8140  -10.4640 C   0  0  0  0  0  0  0  0  0  0  0  0
   27.4480    7.0440   -9.5460 N   0  0  0  0  0  0  0  0  0  0  0  0
   26.2640    7.5230   -8.9990 C   0  0  0  0  0  0  0  0  0  0  0  0
   25.7830    8.7720   -9.3730 N   0  0  0  0  0  0  0  0  0  0  0  0
   26.4850    9.5420  -10.2910 C   0  0  0  0  0  0  0  0  0  0  0  0
   27.6730    9.0630  -10.8370 C   0  0  0  0  0  0  0  0  0  0  0  0
   26.2280   10.7600  -10.8010 N   0  0  0  0  0  0  0  0  0  0  0  0
   27.2340   11.0970  -11.6780 C   0  0  0  0  0  0  0  0  0  0  0  0
   28.0510    9.9480  -11.5820 C   0  0  0  0  0  0  0  0  0  0  0  0
   29.4390    7.2920  -11.0560 C   0  0  1  0  0  0  0  0  0  0  0  0
   25.7080    6.9143   -8.2708 H   0  0  0  0  0  0  0  0  0  0  0  0
   24.9047    9.1271   -8.9688 H   0  0  0  0  0  0  0  0  0  0  0  0
   27.3652   12.0058  -12.2837 H   0  0  0  0  0  0  0  0  0  0  0  0
   28.9859    9.8576  -12.1545 H   0  0  0  0  0  0  0  0  0  0  0  0
   30.1285    7.0121  -10.2459 H   0  0  0  0  0  0  0  0  0  0  0  0
   29.2252    6.4095  -11.6768 H   0  0  0  0  0  0  0  0  0  0  0  0
   29.9008    8.0739  -11.6768 H   0  0  0  0  0  0  0  0  0  0  0  0
  1 10  1  0
  1  6  2  0
  1  2  1  0
  2  3  2  0
  3  4  1  0
  4  5  1  0
  5  6  1  0
  5  7  2  0
  6  9  1  0
  7  8  1  0
  8  9  2  0
  3 11  1  0
  4 12  1  0
  8 13  1  0
  9 14  1  0
 10 15  1  1
 10 16  1  0
 10 17  1  0
M  END
>  <Pose ID>  (176)
18

>  <Score>  (176)
-5.777239799499512

>  <smiles>  (176)
Cc1nc[nH]c2nccc1-2

$$$$

     RDKit          3D

 44 46  0  0  0  0  0  0  0  0999 V2000
   27.2680   14.5950   -7.6340 C   0  0  0  0  0  0  0  0  0  0  0  0
   26.4830   13.4750   -7.8600 N   0  0  0  0  0  0  0  0  0  0  0  0
   26.4300   12.9090   -9.1250 C   0  0  0  0  0  0  0  0  0  0  0  0
   27.1650   13.4680  -10.1670 N   0  0  0  0  0  0  0  0  0  0  0  0
   28.0040   15.1530   -8.6710 C   0  0  0  0  0  0  0  0  0  0  0  0
   27.9490   14.5910   -9.9400 C   0  0  0  0  0  0  0  0  0  0  0  0
   25.5940   11.8190   -9.0980 N   0  0  0  0  0  0  0  0  0  0  0  0
   26.0520   10.4950   -8.7710 C   0  0  2  0  0  0  0  0  0  0  0  0
   27.5050   10.3240   -9.3260 C   0  0  1  0  0  0  0  0  0  0  0  0
   27.9850    8.9220   -9.2580 C   0  0  1  0  0  0  0  0  0  0  0  0
   27.0480    8.0270   -9.8930 O   0  0  0  0  0  0  0  0  0  0  0  0
   25.8220    8.0240   -9.1420 C   0  0  1  0  0  0  0  0  0  0  0  0
   25.1730    9.3830   -9.2720 C   0  0  1  0  0  0  0  0  0  0  0  0
   28.8440   16.2400   -8.6940 N   0  0  0  0  0  0  0  0  0  0  0  0
   28.5020   17.5490   -8.8300 C   0  0  0  0  0  0  0  0  0  0  0  0
   28.9420   18.3350   -9.8890 C   0  0  0  0  0  0  0  0  0  0  0  0
   28.5340   19.6590   -9.9870 C   0  0  0  0  0  0  0  0  0  0  0  0
   27.6860   20.1980   -9.0270 C   0  0  0  0  0  0  0  0  0  0  0  0
   27.2480   19.4130   -7.9680 N   0  0  0  0  0  0  0  0  0  0  0  0
   27.6550   18.0890   -7.8690 C   0  0  0  0  0  0  0  0  0  0  0  0
   27.3220   21.3850   -9.1150 O   0  0  0  0  0  0  0  0  0  0  0  0
   26.3690   20.1830   -7.1260 C   0  0  1  0  0  0  0  0  0  0  0  0
   24.9420   19.5540   -7.1900 C   0  0  1  0  0  0  0  0  0  0  0  0
   27.3080   15.0431   -6.6302 H   0  0  0  0  0  0  0  0  0  0  0  0
   28.5261   15.0353  -10.7643 H   0  0  0  0  0  0  0  0  0  0  0  0
   24.5978   11.9555   -9.3212 H   0  0  0  0  0  0  0  0  0  0  0  0
   26.0214   10.4095   -7.6748 H   0  0  0  0  0  0  0  0  0  0  0  0
   27.5207   10.6503  -10.3764 H   0  0  0  0  0  0  0  0  0  0  0  0
   28.1728   10.9335   -8.6994 H   0  0  0  0  0  0  0  0  0  0  0  0
   28.9564    8.8485   -9.7688 H   0  0  0  0  0  0  0  0  0  0  0  0
   28.0849    8.6350   -8.2008 H   0  0  0  0  0  0  0  0  0  0  0  0
   25.1466    7.2515   -9.5383 H   0  0  0  0  0  0  0  0  0  0  0  0
   26.0302    7.8068   -8.0839 H   0  0  0  0  0  0  0  0  0  0  0  0
   24.2387    9.3840   -8.6914 H   0  0  0  0  0  0  0  0  0  0  0  0
   24.9871    9.5620  -10.3413 H   0  0  0  0  0  0  0  0  0  0  0  0
   29.8497   16.0401   -8.5969 H   0  0  0  0  0  0  0  0  0  0  0  0
   29.6131   17.9084  -10.6491 H   0  0  0  0  0  0  0  0  0  0  0  0
   28.8822   20.2811  -10.8247 H   0  0  0  0  0  0  0  0  0  0  0  0
   27.3073   17.4677   -7.0305 H   0  0  0  0  0  0  0  0  0  0  0  0
   26.7368   20.1629   -6.0895 H   0  0  0  0  0  0  0  0  0  0  0  0
   26.3358   21.2267   -7.4718 H   0  0  0  0  0  0  0  0  0  0  0  0
   24.5679   19.3891   -6.1688 H   0  0  0  0  0  0  0  0  0  0  0  0
   24.2640   20.2367   -7.7231 H   0  0  0  0  0  0  0  0  0  0  0  0
   24.9885   18.5930   -7.7231 H   0  0  0  0  0  0  0  0  0  0  0  0
  1  5  2  0
  1  2  1  0
  2  3  2  0
  3  4  1  0
  3  7  1  0
  4  6  2  0
  5  6  1  0
  5 14  1  0
  7  8  1  0
  8  9  1  0
  8 13  1  0
  9 10  1  0
 10 11  1  0
 11 12  1  0
 12 13  1  0
 14 15  1  0
 15 16  1  0
 15 20  2  0
 16 17  2  0
 17 18  1  0
 18 21  2  0
 18 19  1  0
 19 20  1  0
 19 22  1  0
 22 23  1  0
  1 24  1  0
  6 25  1  0
  7 26  1  0
  8 27  1  1
  9 28  1  6
  9 29  1  0
 10 30  1  6
 10 31  1  0
 12 32  1  6
 12 33  1  0
 13 34  1  1
 13 35  1  0
 14 36  1  0
 16 37  1  0
 17 38  1  0
 20 39  1  0
 22 40  1  1
 22 41  1  0
 23 42  1  1
 23 43  1  0
 23 44  1  0
M  END
>  <Pose ID>  (177)
198

>  <Score>  (177)
-5.7743611335754395

>  <smiles>  (177)
CCn1cc(Nc2cnc(NC3CCOCC3)nc2)ccc1=O

$$$$

     RDKit          3D

 30 31  0  0  0  0  0  0  0  0999 V2000
   27.9710    7.3820  -10.5040 C   0  0  0  0  0  0  0  0  0  0  0  0
   27.2550    7.0420   -9.3650 N   0  0  0  0  0  0  0  0  0  0  0  0
   26.4910    7.9990   -8.7090 C   0  0  0  0  0  0  0  0  0  0  0  0
   26.4470    9.2980   -9.1930 C   0  0  0  0  0  0  0  0  0  0  0  0
   25.6290   10.3190   -8.5460 N   0  0  0  0  0  0  0  0  0  0  0  0
   27.9270    8.6830  -10.9880 C   0  0  0  0  0  0  0  0  0  0  0  0
   27.1630    9.6440  -10.3310 C   0  0  0  0  0  0  0  0  0  0  0  0
   26.2460   11.3350   -7.9850 C   0  0  0  0  0  0  0  0  0  0  0  0
   27.4140   11.6430   -8.0450 O   0  0  0  0  0  0  0  0  0  0  0  0
   25.3900   12.3720   -7.0540 C   0  0  0  0  0  0  0  0  0  0  0  0
   24.2320   12.9710   -7.5360 N   0  0  0  0  0  0  0  0  0  0  0  0
   25.8460   12.6660   -5.7760 C   0  0  0  0  0  0  0  0  0  0  0  0
   25.1440   13.5620   -4.9780 N   0  0  0  0  0  0  0  0  0  0  0  0
   23.5300   13.8660   -6.7370 C   0  0  0  0  0  0  0  0  0  0  0  0
   23.9620   14.1580   -5.4730 C   0  0  0  0  0  0  0  0  0  0  0  0
   26.8810   12.1290   -5.3440 O   0  0  0  0  0  0  0  0  0  0  0  0
   23.1800   15.1150   -4.6100 C   0  0  1  0  0  0  0  0  0  0  0  0
   25.7110    7.6260   -7.4720 C   0  0  1  0  0  0  0  0  0  0  0  0
   28.5730    6.6217  -11.0231 H   0  0  0  0  0  0  0  0  0  0  0  0
   24.6017   10.2458   -8.5296 H   0  0  0  0  0  0  0  0  0  0  0  0
   28.4954    8.9541  -11.8899 H   0  0  0  0  0  0  0  0  0  0  0  0
   27.1268   10.6750  -10.7128 H   0  0  0  0  0  0  0  0  0  0  0  0
   25.4830   13.7900   -4.0325 H   0  0  0  0  0  0  0  0  0  0  0  0
   22.6184   14.3438   -7.1252 H   0  0  0  0  0  0  0  0  0  0  0  0
   23.3655   14.8880   -3.5498 H   0  0  0  0  0  0  0  0  0  0  0  0
   23.4974   16.1460   -4.8252 H   0  0  0  0  0  0  0  0  0  0  0  0
   22.1064   15.0094   -4.8252 H   0  0  0  0  0  0  0  0  0  0  0  0
   26.2884    7.9021   -6.5773 H   0  0  0  0  0  0  0  0  0  0  0  0
   24.7506    8.1623   -7.4685 H   0  0  0  0  0  0  0  0  0  0  0  0
   25.5255    6.5418   -7.4685 H   0  0  0  0  0  0  0  0  0  0  0  0
  5  4  1  0
  5  8  1  0
  8  9  2  0
  8 10  1  0
 10 11  2  0
 10 12  1  0
 11 14  1  0
 12 16  2  0
 12 13  1  0
 13 15  1  0
 14 15  2  0
 15 17  1  0
  1  6  2  0
  1  2  1  0
  2  3  2  0
  3  4  1  0
  3 18  1  0
  4  7  2  0
  6  7  1  0
  1 19  1  0
  5 20  1  0
  6 21  1  0
  7 22  1  0
 13 23  1  0
 14 24  1  0
 17 25  1  1
 17 26  1  0
 17 27  1  0
 18 28  1  1
 18 29  1  0
 18 30  1  0
M  END
>  <Pose ID>  (178)
45

>  <Score>  (178)
-5.757246017456055

>  <smiles>  (178)
Cc1cnc(C(=O)Nc2cccnc2C)c(=O)[nH]1

$$$$

     RDKit          3D

 46 48  0  0  0  0  0  0  0  0999 V2000
   26.0140   14.1390   -8.2950 C   0  0  0  0  0  0  0  0  0  0  0  0
   25.7170   12.9140   -8.8740 N   0  0  0  0  0  0  0  0  0  0  0  0
   26.7130   12.1950   -9.5210 C   0  0  0  0  0  0  0  0  0  0  0  0
   28.0060   12.7030   -9.5880 N   0  0  0  0  0  0  0  0  0  0  0  0
   27.3040   14.6470   -8.3570 C   0  0  0  0  0  0  0  0  0  0  0  0
   28.3000   13.9280   -9.0060 C   0  0  0  0  0  0  0  0  0  0  0  0
   26.1800   11.0240  -10.0090 N   0  0  0  0  0  0  0  0  0  0  0  0
   26.1190    9.8140   -9.2340 C   0  0  2  0  0  0  0  0  0  0  0  0
   27.3890    9.7480   -8.3220 C   0  0  1  0  0  0  0  0  0  0  0  0
   27.5520    8.4310   -7.6570 C   0  0  1  0  0  0  0  0  0  0  0  0
   27.5160    7.3610   -8.6260 O   0  0  0  0  0  0  0  0  0  0  0  0
   26.2040    7.3070   -9.2130 C   0  0  1  0  0  0  0  0  0  0  0  0
   25.9980    8.5540  -10.0430 C   0  0  1  0  0  0  0  0  0  0  0  0
   27.8360   15.8140   -7.8630 N   0  0  0  0  0  0  0  0  0  0  0  0
   27.6540   17.1170   -8.4760 C   0  0  0  0  0  0  0  0  0  0  0  0
   28.8540   17.7430   -8.7910 C   0  0  0  0  0  0  0  0  0  0  0  0
   28.8480   18.9930   -9.3980 C   0  0  0  0  0  0  0  0  0  0  0  0
   27.6400   19.6190   -9.6890 N   0  0  0  0  0  0  0  0  0  0  0  0
   26.4400   18.9930   -9.3740 C   0  0  0  0  0  0  0  0  0  0  0  0
   26.4510   17.7460   -8.7470 C   0  0  0  0  0  0  0  0  0  0  0  0
   24.8740   10.0450   -8.3520 C   0  0  1  0  0  0  0  0  0  0  0  0
   25.1500   17.0830   -8.3650 C   0  0  1  0  0  0  0  0  0  0  0  0
   25.0990   16.7340   -6.8550 C   0  0  1  0  0  0  0  0  0  0  0  0
   25.2242   14.7099   -7.7848 H   0  0  0  0  0  0  0  0  0  0  0  0
   29.3225   14.3301   -9.0586 H   0  0  0  0  0  0  0  0  0  0  0  0
   25.8091   11.0136  -10.9698 H   0  0  0  0  0  0  0  0  0  0  0  0
   28.2771    9.9411   -8.9417 H   0  0  0  0  0  0  0  0  0  0  0  0
   27.2696   10.5049   -7.5328 H   0  0  0  0  0  0  0  0  0  0  0  0
   28.5179    8.4093   -7.1311 H   0  0  0  0  0  0  0  0  0  0  0  0
   26.7258    8.2903   -6.9446 H   0  0  0  0  0  0  0  0  0  0  0  0
   26.1206    6.4168   -9.8538 H   0  0  0  0  0  0  0  0  0  0  0  0
   25.4401    7.2492   -8.4237 H   0  0  0  0  0  0  0  0  0  0  0  0
   24.9935    8.5176  -10.4899 H   0  0  0  0  0  0  0  0  0  0  0  0
   26.7842    8.5755  -10.8120 H   0  0  0  0  0  0  0  0  0  0  0  0
   28.3999   15.7605   -7.0027 H   0  0  0  0  0  0  0  0  0  0  0  0
   29.8091   17.2488   -8.5597 H   0  0  0  0  0  0  0  0  0  0  0  0
   29.7981   19.4875   -9.6484 H   0  0  0  0  0  0  0  0  0  0  0  0
   25.4839   19.4790   -9.6182 H   0  0  0  0  0  0  0  0  0  0  0  0
   25.1610    9.9918   -7.2914 H   0  0  0  0  0  0  0  0  0  0  0  0
   24.4506   11.0370   -8.5679 H   0  0  0  0  0  0  0  0  0  0  0  0
   24.1229    9.2709   -8.5679 H   0  0  0  0  0  0  0  0  0  0  0  0
   24.3205   17.7662   -8.6001 H   0  0  0  0  0  0  0  0  0  0  0  0
   25.0658   16.1454   -8.9341 H   0  0  0  0  0  0  0  0  0  0  0  0
   25.2330   17.6508   -6.2621 H   0  0  0  0  0  0  0  0  0  0  0  0
   24.1252   16.2817   -6.6159 H   0  0  0  0  0  0  0  0  0  0  0  0
   25.9026   16.0220   -6.6159 H   0  0  0  0  0  0  0  0  0  0  0  0
  1  2  2  0
  1  5  1  0
  2  3  1  0
  3  7  1  0
  3  4  2  0
  4  6  1  0
  5  6  2  0
  5 14  1  0
  8  7  1  6
  8 13  1  0
  8 21  1  0
  8  9  1  0
  9 10  1  0
 10 11  1  0
 11 12  1  0
 12 13  1  0
 14 15  1  0
 15 16  2  0
 15 20  1  0
 16 17  1  0
 17 18  2  0
 18 19  1  0
 19 20  2  0
 20 22  1  0
 22 23  1  0
  1 24  1  0
  6 25  1  0
  7 26  1  0
  9 27  1  6
  9 28  1  0
 10 29  1  1
 10 30  1  0
 12 31  1  6
 12 32  1  0
 13 33  1  6
 13 34  1  0
 14 35  1  0
 16 36  1  0
 17 37  1  0
 19 38  1  0
 21 39  1  1
 21 40  1  0
 21 41  1  0
 22 42  1  6
 22 43  1  0
 23 44  1  1
 23 45  1  0
 23 46  1  0
M  END
>  <Pose ID>  (179)
229

>  <Score>  (179)
-5.743589878082275

>  <smiles>  (179)
CCc1cnccc1Nc1cnc(NC2(C)CCOCC2)nc1

$$$$

     RDKit          3D

 40 42  0  0  0  0  0  0  0  0999 V2000
   26.4080   14.3180   -8.0590 C   0  0  0  0  0  0  0  0  0  0  0  0
   25.8910   13.0940   -8.4490 N   0  0  0  0  0  0  0  0  0  0  0  0
   26.5610   12.3280   -9.3940 C   0  0  0  0  0  0  0  0  0  0  0  0
   27.7490   12.7930   -9.9490 N   0  0  0  0  0  0  0  0  0  0  0  0
   27.5940   14.7840   -8.6090 C   0  0  0  0  0  0  0  0  0  0  0  0
   28.2640   14.0210   -9.5570 C   0  0  0  0  0  0  0  0  0  0  0  0
   25.8600   11.1660   -9.6130 N   0  0  0  0  0  0  0  0  0  0  0  0
   26.0640    9.9750   -8.8330 C   0  0  2  0  0  0  0  0  0  0  0  0
   27.5800    9.8870   -8.4530 C   0  0  1  0  0  0  0  0  0  0  0  0
   27.9490    8.5800   -7.8540 C   0  0  1  0  0  0  0  0  0  0  0  0
   27.5330    7.4910   -8.7060 O   0  0  0  0  0  0  0  0  0  0  0  0
   26.0960    7.4670   -8.7670 C   0  0  1  0  0  0  0  0  0  0  0  0
   25.6250    8.7020   -9.5000 C   0  0  1  0  0  0  0  0  0  0  0  0
   28.2970   15.9440   -8.3840 N   0  0  0  0  0  0  0  0  0  0  0  0
   28.0560   17.1620   -8.9560 C   0  0  0  0  0  0  0  0  0  0  0  0
   29.0230   17.8170   -9.7090 C   0  0  0  0  0  0  0  0  0  0  0  0
   28.7430   19.0550  -10.2750 C   0  0  0  0  0  0  0  0  0  0  0  0
   27.4950   19.6380  -10.0880 C   0  0  0  0  0  0  0  0  0  0  0  0
   26.5280   18.9830   -9.3350 N   0  0  0  0  0  0  0  0  0  0  0  0
   26.8080   17.7450   -8.7690 C   0  0  0  0  0  0  0  0  0  0  0  0
   27.1900   20.9820  -10.7040 C   0  0  1  0  0  0  0  0  0  0  0  0
   25.8765   14.9235   -7.3101 H   0  0  0  0  0  0  0  0  0  0  0  0
   29.2023   14.3898   -9.9969 H   0  0  0  0  0  0  0  0  0  0  0  0
   25.1591   11.1475  -10.3675 H   0  0  0  0  0  0  0  0  0  0  0  0
   25.4241   10.0651   -7.9429 H   0  0  0  0  0  0  0  0  0  0  0  0
   28.1795   10.0382   -9.3628 H   0  0  0  0  0  0  0  0  0  0  0  0
   27.7777   10.6637   -7.6996 H   0  0  0  0  0  0  0  0  0  0  0  0
   29.0403    8.5386   -7.7224 H   0  0  0  0  0  0  0  0  0  0  0  0
   27.4427    8.4814   -6.8824 H   0  0  0  0  0  0  0  0  0  0  0  0
   25.7627    6.5670   -9.3046 H   0  0  0  0  0  0  0  0  0  0  0  0
   25.6764    7.4499   -7.7503 H   0  0  0  0  0  0  0  0  0  0  0  0
   24.5259    8.6881   -9.5429 H   0  0  0  0  0  0  0  0  0  0  0  0
   26.0716    8.6824  -10.5051 H   0  0  0  0  0  0  0  0  0  0  0  0
   29.0821   15.8900   -7.7194 H   0  0  0  0  0  0  0  0  0  0  0  0
   30.0104   17.3554   -9.8571 H   0  0  0  0  0  0  0  0  0  0  0  0
   29.5087   19.5734  -10.8708 H   0  0  0  0  0  0  0  0  0  0  0  0
   26.0423   17.2266   -8.1732 H   0  0  0  0  0  0  0  0  0  0  0  0
   27.0223   21.7211   -9.9068 H   0  0  0  0  0  0  0  0  0  0  0  0
   28.0386   21.3009  -11.3270 H   0  0  0  0  0  0  0  0  0  0  0  0
   26.2869   20.9033  -11.3270 H   0  0  0  0  0  0  0  0  0  0  0  0
  1  5  2  0
  1  2  1  0
  2  3  2  0
  3  4  1  0
  3  7  1  0
  4  6  2  0
  5  6  1  0
  5 14  1  0
  7  8  1  0
  8 13  1  0
  8  9  1  0
  9 10  1  0
 10 11  1  0
 11 12  1  0
 12 13  1  0
 14 15  1  0
 15 16  2  0
 15 20  1  0
 16 17  1  0
 17 18  2  0
 18 21  1  0
 18 19  1  0
 19 20  2  0
  1 22  1  0
  6 23  1  0
  7 24  1  0
  8 25  1  1
  9 26  1  6
  9 27  1  0
 10 28  1  1
 10 29  1  0
 12 30  1  6
 12 31  1  0
 13 32  1  6
 13 33  1  0
 14 34  1  0
 16 35  1  0
 17 36  1  0
 20 37  1  0
 21 38  1  1
 21 39  1  0
 21 40  1  0
M  END
>  <Pose ID>  (180)
191

>  <Score>  (180)
-5.74187707901001

>  <smiles>  (180)
Cc1ccc(Nc2cnc(NC3CCOCC3)nc2)cn1

$$$$

     RDKit          3D

 46 48  0  0  0  0  0  0  0  0999 V2000
   25.8910   13.8310   -7.7110 C   0  0  0  0  0  0  0  0  0  0  0  0
   25.5230   12.6250   -8.2840 N   0  0  0  0  0  0  0  0  0  0  0  0
   26.3740   11.9990   -9.1850 C   0  0  0  0  0  0  0  0  0  0  0  0
   27.5910   12.5850   -9.5150 N   0  0  0  0  0  0  0  0  0  0  0  0
   27.1050   14.4190   -8.0350 C   0  0  0  0  0  0  0  0  0  0  0  0
   27.9550   13.7960   -8.9410 C   0  0  0  0  0  0  0  0  0  0  0  0
   25.7960   10.8260   -9.6120 N   0  0  0  0  0  0  0  0  0  0  0  0
   25.9740    9.5760   -8.9220 C   0  0  2  0  0  0  0  0  0  0  0  0
   27.4240    9.5380   -8.3340 C   0  0  1  0  0  0  0  0  0  0  0  0
   27.7990    8.2020   -7.8100 C   0  0  1  0  0  0  0  0  0  0  0  0
   27.5870    7.1830   -8.8100 O   0  0  0  0  0  0  0  0  0  0  0  0
   26.1790    7.0810   -9.0830 C   0  0  1  0  0  0  0  0  0  0  0  0
   25.7260    8.3540   -9.7620 C   0  0  1  0  0  0  0  0  0  0  0  0
   27.6850   15.5880   -7.6040 N   0  0  0  0  0  0  0  0  0  0  0  0
   27.4520   16.8750   -8.0230 C   0  0  0  0  0  0  0  0  0  0  0  0
   28.4560   17.6090   -8.6450 C   0  0  0  0  0  0  0  0  0  0  0  0
   28.1800   18.8740   -9.1500 C   0  0  0  0  0  0  0  0  0  0  0  0
   26.9020   19.4060   -9.0340 N   0  0  0  0  0  0  0  0  0  0  0  0
   25.8980   18.6720   -8.4120 C   0  0  0  0  0  0  0  0  0  0  0  0
   26.1740   17.4070   -7.9070 C   0  0  0  0  0  0  0  0  0  0  0  0
   24.9660   14.5120   -6.7310 C   0  0  1  0  0  0  0  0  0  0  0  0
   25.8010   14.9940   -5.5870 C   0  0  1  0  0  0  0  0  0  0  0  0
   29.2740   14.4350   -9.3000 C   0  0  1  0  0  0  0  0  0  0  0  0
   25.2120   10.8432  -10.4602 H   0  0  0  0  0  0  0  0  0  0  0  0
   25.2116    9.5381   -8.1300 H   0  0  0  0  0  0  0  0  0  0  0  0
   28.1324    9.8150   -9.1286 H   0  0  0  0  0  0  0  0  0  0  0  0
   27.4574   10.2445   -7.4916 H   0  0  0  0  0  0  0  0  0  0  0  0
   28.8611    8.2116   -7.5240 H   0  0  0  0  0  0  0  0  0  0  0  0
   27.1701    7.9759   -6.9363 H   0  0  0  0  0  0  0  0  0  0  0  0
   25.9908    6.2216   -9.7433 H   0  0  0  0  0  0  0  0  0  0  0  0
   25.6236    6.9374   -8.1444 H   0  0  0  0  0  0  0  0  0  0  0  0
   24.6478    8.2798   -9.9667 H   0  0  0  0  0  0  0  0  0  0  0  0
   26.3079    8.4628  -10.6891 H   0  0  0  0  0  0  0  0  0  0  0  0
   28.3933   15.4845   -6.8634 H   0  0  0  0  0  0  0  0  0  0  0  0
   29.4683   17.1885   -8.7373 H   0  0  0  0  0  0  0  0  0  0  0  0
   28.9743   19.4545   -9.6420 H   0  0  0  0  0  0  0  0  0  0  0  0
   24.8857   19.0925   -8.3197 H   0  0  0  0  0  0  0  0  0  0  0  0
   25.3797   16.8265   -7.4150 H   0  0  0  0  0  0  0  0  0  0  0  0
   24.4656   15.3632   -7.2158 H   0  0  0  0  0  0  0  0  0  0  0  0
   24.1917   13.8143   -6.3793 H   0  0  0  0  0  0  0  0  0  0  0  0
   25.3188   14.7157   -4.6383 H   0  0  0  0  0  0  0  0  0  0  0  0
   26.7981   14.5325   -5.6408 H   0  0  0  0  0  0  0  0  0  0  0  0
   25.9000   16.0882   -5.6408 H   0  0  0  0  0  0  0  0  0  0  0  0
   29.8166   14.6978   -8.3799 H   0  0  0  0  0  0  0  0  0  0  0  0
   29.8751   13.7282   -9.8909 H   0  0  0  0  0  0  0  0  0  0  0  0
   29.0919   15.3448   -9.8909 H   0  0  0  0  0  0  0  0  0  0  0  0
  1  2  2  0
  1  5  1  0
  1 21  1  0
  2  3  1  0
  3  7  1  0
  3  4  2  0
  4  6  1  0
  5  6  2  0
  5 14  1  0
  6 23  1  0
  7  8  1  0
  8 13  1  0
  8  9  1  0
  9 10  1  0
 10 11  1  0
 11 12  1  0
 12 13  1  0
 14 15  1  0
 15 16  2  0
 15 20  1  0
 16 17  1  0
 17 18  2  0
 18 19  1  0
 19 20  2  0
 21 22  1  0
  7 24  1  0
  8 25  1  1
  9 26  1  6
  9 27  1  0
 10 28  1  1
 10 29  1  0
 12 30  1  6
 12 31  1  0
 13 32  1  6
 13 33  1  0
 14 34  1  0
 16 35  1  0
 17 36  1  0
 19 37  1  0
 20 38  1  0
 21 39  1  6
 21 40  1  0
 22 41  1  1
 22 42  1  0
 22 43  1  0
 23 44  1  1
 23 45  1  0
 23 46  1  0
M  END
>  <Pose ID>  (181)
246

>  <Score>  (181)
-5.729809761047363

>  <smiles>  (181)
CCc1nc(NC2CCOCC2)nc(C)c1Nc1ccncc1

$$$$

     RDKit          3D

 44 46  0  0  0  0  0  0  0  0999 V2000
   27.2300   13.9720   -7.5880 C   0  0  0  0  0  0  0  0  0  0  0  0
   26.5260   12.7930   -7.7650 N   0  0  0  0  0  0  0  0  0  0  0  0
   26.5020   12.1780   -9.0080 C   0  0  0  0  0  0  0  0  0  0  0  0
   27.1860   12.7490  -10.0780 N   0  0  0  0  0  0  0  0  0  0  0  0
   27.9150   14.5440   -8.6510 C   0  0  0  0  0  0  0  0  0  0  0  0
   27.8900   13.9330   -9.8990 C   0  0  0  0  0  0  0  0  0  0  0  0
   25.7470   11.0330   -8.9350 N   0  0  0  0  0  0  0  0  0  0  0  0
   26.3010    9.7570   -8.5650 C   0  0  2  0  0  0  0  0  0  0  0  0
   27.7580    9.6700   -9.1300 C   0  0  1  0  0  0  0  0  0  0  0  0
   28.3380    8.3090   -9.0170 C   0  0  1  0  0  0  0  0  0  0  0  0
   27.4610    7.3280   -9.6100 O   0  0  0  0  0  0  0  0  0  0  0  0
   26.2450    7.2650   -8.8450 C   0  0  1  0  0  0  0  0  0  0  0  0
   25.5000    8.5690   -9.0170 C   0  0  1  0  0  0  0  0  0  0  0  0
   28.6760   15.6870   -8.7230 N   0  0  0  0  0  0  0  0  0  0  0  0
   28.2390   16.9610   -8.9010 C   0  0  0  0  0  0  0  0  0  0  0  0
   28.6130   17.7370   -9.9920 C   0  0  0  0  0  0  0  0  0  0  0  0
   28.1100   19.0260  -10.1330 C   0  0  0  0  0  0  0  0  0  0  0  0
   27.2350   19.5380   -9.1820 C   0  0  0  0  0  0  0  0  0  0  0  0
   26.8620   18.7620   -8.0910 N   0  0  0  0  0  0  0  0  0  0  0  0
   27.3640   17.4740   -7.9500 C   0  0  0  0  0  0  0  0  0  0  0  0
   26.7860   20.6910   -9.3090 O   0  0  0  0  0  0  0  0  0  0  0  0
   25.9310   19.2060   -7.0040 C   0  0  1  0  0  0  0  0  0  0  0  0
   27.2530   14.6380   -6.2340 C   0  0  1  0  0  0  0  0  0  0  0  0
   28.4275   14.3868  -10.7447 H   0  0  0  0  0  0  0  0  0  0  0  0
   24.7422   11.0898   -9.1542 H   0  0  0  0  0  0  0  0  0  0  0  0
   26.2856    9.7090   -7.4662 H   0  0  0  0  0  0  0  0  0  0  0  0
   27.7411    9.9579  -10.1915 H   0  0  0  0  0  0  0  0  0  0  0  0
   28.3857   10.3482   -8.5333 H   0  0  0  0  0  0  0  0  0  0  0  0
   29.3079    8.2860   -9.5354 H   0  0  0  0  0  0  0  0  0  0  0  0
   28.4678    8.0681   -7.9516 H   0  0  0  0  0  0  0  0  0  0  0  0
   25.6230    6.4324   -9.2053 H   0  0  0  0  0  0  0  0  0  0  0  0
   26.4772    7.1018   -7.7822 H   0  0  0  0  0  0  0  0  0  0  0  0
   24.5723    8.5249   -8.4276 H   0  0  0  0  0  0  0  0  0  0  0  0
   25.2938    8.6954  -10.0901 H   0  0  0  0  0  0  0  0  0  0  0  0
   29.6944   15.5631   -8.6315 H   0  0  0  0  0  0  0  0  0  0  0  0
   29.3065   17.3318  -10.7435 H   0  0  0  0  0  0  0  0  0  0  0  0
   28.4045   19.6401  -10.9968 H   0  0  0  0  0  0  0  0  0  0  0  0
   27.0692   16.8603   -7.0860 H   0  0  0  0  0  0  0  0  0  0  0  0
   26.3822   18.9908   -6.0242 H   0  0  0  0  0  0  0  0  0  0  0  0
   25.7503   20.2872   -7.0949 H   0  0  0  0  0  0  0  0  0  0  0  0
   24.9771   18.6659   -7.0949 H   0  0  0  0  0  0  0  0  0  0  0  0
   27.2265   13.8699   -5.4471 H   0  0  0  0  0  0  0  0  0  0  0  0
   28.1723   15.2338   -6.1340 H   0  0  0  0  0  0  0  0  0  0  0  0
   26.3770   15.2958   -6.1340 H   0  0  0  0  0  0  0  0  0  0  0  0
  1  5  2  0
  1  2  1  0
  1 23  1  0
  2  3  2  0
  3  4  1  0
  3  7  1  0
  4  6  2  0
  5  6  1  0
  5 14  1  0
  7  8  1  0
  8  9  1  0
  8 13  1  0
  9 10  1  0
 10 11  1  0
 11 12  1  0
 12 13  1  0
 14 15  1  0
 15 16  1  0
 15 20  2  0
 16 17  2  0
 17 18  1  0
 18 21  2  0
 18 19  1  0
 19 20  1  0
 19 22  1  0
  6 24  1  0
  7 25  1  0
  8 26  1  1
  9 27  1  6
  9 28  1  0
 10 29  1  6
 10 30  1  0
 12 31  1  6
 12 32  1  0
 13 33  1  1
 13 34  1  0
 14 35  1  0
 16 36  1  0
 17 37  1  0
 20 38  1  0
 22 39  1  1
 22 40  1  0
 22 41  1  0
 23 42  1  1
 23 43  1  0
 23 44  1  0
M  END
>  <Pose ID>  (182)
201

>  <Score>  (182)
-5.710122585296631

>  <smiles>  (182)
Cc1nc(NC2CCOCC2)ncc1Nc1ccc(=O)n(C)c1

$$$$

     RDKit          3D

 23 25  0  0  0  0  0  0  0  0999 V2000
   28.1070    8.0340  -10.3590 C   0  0  0  0  0  0  0  0  0  0  0  0
   27.4690    7.0420   -9.6250 N   0  0  0  0  0  0  0  0  0  0  0  0
   26.2490    7.3030   -9.0140 C   0  0  0  0  0  0  0  0  0  0  0  0
   25.6650    8.5580   -9.1380 N   0  0  0  0  0  0  0  0  0  0  0  0
   26.3000    9.5490   -9.8740 C   0  0  0  0  0  0  0  0  0  0  0  0
   27.5220    9.2880  -10.4840 C   0  0  0  0  0  0  0  0  0  0  0  0
   25.9400   10.8200  -10.1340 N   0  0  0  0  0  0  0  0  0  0  0  0
   26.8010   11.3440  -10.8290 N   0  0  0  0  0  0  0  0  0  0  0  0
   27.7740   10.5160  -11.0970 C   0  0  0  0  0  0  0  0  0  0  0  0
   28.9640   10.6080  -11.8410 C   0  0  0  0  0  0  0  0  0  0  0  0
   29.2550   11.8460  -12.5080 C   0  0  0  0  0  0  0  0  0  0  0  0
   30.3270   11.8020  -13.1210 C   0  0  0  0  0  0  0  0  0  0  0  0
   29.9150    9.7100  -12.1410 O   0  0  0  0  0  0  0  0  0  0  0  0
   30.7890   10.3150  -12.9100 C   0  0  0  0  0  0  0  0  0  0  0  0
   31.0200   12.9030  -13.8850 C   0  0  1  0  0  0  0  0  0  0  0  0
   29.0741    7.8269  -10.8406 H   0  0  0  0  0  0  0  0  0  0  0  0
   25.7455    6.5168   -8.4324 H   0  0  0  0  0  0  0  0  0  0  0  0
   24.7612    8.7528   -8.6839 H   0  0  0  0  0  0  0  0  0  0  0  0
   28.6006   12.7296  -12.4769 H   0  0  0  0  0  0  0  0  0  0  0  0
   31.6942    9.8576  -13.3360 H   0  0  0  0  0  0  0  0  0  0  0  0
   31.4682   13.6150  -13.1764 H   0  0  0  0  0  0  0  0  0  0  0  0
   31.8087   12.4699  -14.5178 H   0  0  0  0  0  0  0  0  0  0  0  0
   30.2884   13.4268  -14.5178 H   0  0  0  0  0  0  0  0  0  0  0  0
  1  6  2  0
  1  2  1  0
  2  3  2  0
  3  4  1  0
  4  5  1  0
  5  6  1  0
  5  7  2  0
  6  9  1  0
  7  8  1  0
  8  9  2  0
  9 10  1  0
 10 11  2  0
 10 13  1  0
 11 12  1  0
 12 15  1  0
 12 14  2  0
 13 14  1  0
  1 16  1  0
  3 17  1  0
  4 18  1  0
 11 19  1  0
 14 20  1  0
 15 21  1  1
 15 22  1  0
 15 23  1  0
M  END
>  <Pose ID>  (183)
22

>  <Score>  (183)
-5.69677734375

>  <smiles>  (183)
Cc1coc(-c2nnc3[nH]cncc2-3)c1

$$$$

     RDKit          3D

 46 48  0  0  0  0  0  0  0  0999 V2000
   25.9210   13.7830   -7.6910 C   0  0  0  0  0  0  0  0  0  0  0  0
   25.5260   12.5950   -8.2830 N   0  0  0  0  0  0  0  0  0  0  0  0
   26.3600   11.9640   -9.1960 C   0  0  0  0  0  0  0  0  0  0  0  0
   27.5910   12.5260   -9.5160 N   0  0  0  0  0  0  0  0  0  0  0  0
   27.1500   14.3460   -8.0070 C   0  0  0  0  0  0  0  0  0  0  0  0
   27.9860   13.7170   -8.9230 C   0  0  0  0  0  0  0  0  0  0  0  0
   25.7560   10.8120   -9.6400 N   0  0  0  0  0  0  0  0  0  0  0  0
   25.9030    9.5460   -8.9720 C   0  0  2  0  0  0  0  0  0  0  0  0
   27.3500    9.4640   -8.3830 C   0  0  1  0  0  0  0  0  0  0  0  0
   27.6930    8.1120   -7.8820 C   0  0  1  0  0  0  0  0  0  0  0  0
   27.4570    7.1130   -8.8990 O   0  0  0  0  0  0  0  0  0  0  0  0
   26.0470    7.0500   -9.1730 C   0  0  1  0  0  0  0  0  0  0  0  0
   25.6260    8.3440   -9.8290 C   0  0  1  0  0  0  0  0  0  0  0  0
   27.7560   15.4950   -7.5570 N   0  0  0  0  0  0  0  0  0  0  0  0
   27.5550   16.7930   -7.9560 C   0  0  0  0  0  0  0  0  0  0  0  0
   28.5770   17.5120   -8.5660 C   0  0  0  0  0  0  0  0  0  0  0  0
   28.3310   18.7910   -9.0500 C   0  0  0  0  0  0  0  0  0  0  0  0
   27.0660   19.3510   -8.9240 N   0  0  0  0  0  0  0  0  0  0  0  0
   26.0450   18.6320   -8.3150 C   0  0  0  0  0  0  0  0  0  0  0  0
   26.2910   17.3530   -7.8290 C   0  0  0  0  0  0  0  0  0  0  0  0
   29.3190   14.3300   -9.2720 C   0  0  1  0  0  0  0  0  0  0  0  0
   29.2440   15.0890  -10.5950 C   0  0  1  0  0  0  0  0  0  0  0  0
   24.6710   19.2390   -8.1810 C   0  0  1  0  0  0  0  0  0  0  0  0
   25.2589   14.2821   -6.9681 H   0  0  0  0  0  0  0  0  0  0  0  0
   25.1728   10.8568  -10.4878 H   0  0  0  0  0  0  0  0  0  0  0  0
   25.1376    9.5135   -8.1827 H   0  0  0  0  0  0  0  0  0  0  0  0
   28.0661    9.7381   -9.1717 H   0  0  0  0  0  0  0  0  0  0  0  0
   27.3981   10.1548   -7.5283 H   0  0  0  0  0  0  0  0  0  0  0  0
   28.7551    8.0919   -7.5963 H   0  0  0  0  0  0  0  0  0  0  0  0
   27.0583    7.8867   -7.0123 H   0  0  0  0  0  0  0  0  0  0  0  0
   25.8378    6.2070   -9.8480 H   0  0  0  0  0  0  0  0  0  0  0  0
   25.4881    6.9036   -8.2369 H   0  0  0  0  0  0  0  0  0  0  0  0
   24.5462    8.2994  -10.0340 H   0  0  0  0  0  0  0  0  0  0  0  0
   26.2118    8.4534  -10.7536 H   0  0  0  0  0  0  0  0  0  0  0  0
   28.4597   15.3635   -6.8164 H   0  0  0  0  0  0  0  0  0  0  0  0
   29.5789   17.0688   -8.6653 H   0  0  0  0  0  0  0  0  0  0  0  0
   29.1385   19.3605   -9.5333 H   0  0  0  0  0  0  0  0  0  0  0  0
   25.4840   16.7845   -7.3437 H   0  0  0  0  0  0  0  0  0  0  0  0
   29.6142   15.0270   -8.4739 H   0  0  0  0  0  0  0  0  0  0  0  0
   30.0596   13.5230   -9.3730 H   0  0  0  0  0  0  0  0  0  0  0  0
   29.1376   16.1654  -10.3947 H   0  0  0  0  0  0  0  0  0  0  0  0
   30.1640   14.9125  -11.1716 H   0  0  0  0  0  0  0  0  0  0  0  0
   28.3764   14.7359  -11.1716 H   0  0  0  0  0  0  0  0  0  0  0  0
   24.4212   19.3493   -7.1154 H   0  0  0  0  0  0  0  0  0  0  0  0
   24.6577   20.2268   -8.6649 H   0  0  0  0  0  0  0  0  0  0  0  0
   23.9318   18.5837   -8.6649 H   0  0  0  0  0  0  0  0  0  0  0  0
  1  2  2  0
  1  5  1  0
  2  3  1  0
  3  7  1  0
  3  4  2  0
  4  6  1  0
  5  6  2  0
  5 14  1  0
  6 21  1  0
  7  8  1  0
  8 13  1  0
  8  9  1  0
  9 10  1  0
 10 11  1  0
 11 12  1  0
 12 13  1  0
 14 15  1  0
 15 16  2  0
 15 20  1  0
 16 17  1  0
 17 18  2  0
 18 19  1  0
 19 23  1  0
 19 20  2  0
 21 22  1  0
  1 24  1  0
  7 25  1  0
  8 26  1  1
  9 27  1  6
  9 28  1  0
 10 29  1  1
 10 30  1  0
 12 31  1  6
 12 32  1  0
 13 33  1  6
 13 34  1  0
 14 35  1  0
 16 36  1  0
 17 37  1  0
 20 38  1  0
 21 39  1  1
 21 40  1  0
 22 41  1  1
 22 42  1  0
 22 43  1  0
 23 44  1  1
 23 45  1  0
 23 46  1  0
M  END
>  <Pose ID>  (184)
242

>  <Score>  (184)
-5.682388782501221

>  <smiles>  (184)
CCc1nc(NC2CCOCC2)ncc1Nc1ccnc(C)c1

$$$$

     RDKit          3D

 38 41  0  0  0  0  0  0  0  0999 V2000
   27.9310    8.3410  -10.8180 C   0  0  0  0  0  0  0  0  0  0  0  0
   27.0820    7.6450  -10.0920 N   0  0  0  0  0  0  0  0  0  0  0  0
   25.9620    8.3150   -9.6080 C   0  0  0  0  0  0  0  0  0  0  0  0
   25.0590    7.6520   -8.8790 O   0  0  0  0  0  0  0  0  0  0  0  0
   27.7770    9.6870  -11.1320 C   0  0  0  0  0  0  0  0  0  0  0  0
   26.7140   10.3400  -10.6720 C   0  0  0  0  0  0  0  0  0  0  0  0
   25.7790    9.6610   -9.8980 C   0  0  0  0  0  0  0  0  0  0  0  0
   28.7320   10.3340  -11.9060 C   0  0  0  0  0  0  0  0  0  0  0  0
   29.8420    9.6360  -12.3650 C   0  0  0  0  0  0  0  0  0  0  0  0
   29.9970    8.2920  -12.0510 C   0  0  0  0  0  0  0  0  0  0  0  0
   29.0770    7.6360  -11.2550 C   0  0  0  0  0  0  0  0  0  0  0  0
   25.1460    8.0250   -7.5030 C   0  0  1  0  0  0  0  0  0  0  0  0
   24.6730   10.3240   -9.4170 N   0  0  0  0  0  0  0  0  0  0  0  0
   24.4950   11.5120   -8.6410 C   0  0  0  0  0  0  0  0  0  0  0  0
   25.6840   12.2270   -8.5670 N   0  0  0  0  0  0  0  0  0  0  0  0
   25.7370   13.4180   -7.8490 C   0  0  0  0  0  0  0  0  0  0  0  0
   24.5990   13.8910   -7.2070 C   0  0  0  0  0  0  0  0  0  0  0  0
   23.4090   13.1760   -7.2820 N   0  0  0  0  0  0  0  0  0  0  0  0
   23.3570   11.9850   -7.9910 C   0  0  0  0  0  0  0  0  0  0  0  0
   24.8950   15.0470   -6.5840 N   0  0  0  0  0  0  0  0  0  0  0  0
   26.2210   15.3430   -6.8040 C   0  0  0  0  0  0  0  0  0  0  0  0
   26.6010   14.2370   -7.5970 C   0  0  0  0  0  0  0  0  0  0  0  0
   26.0510    7.1280   -6.6480 C   0  0  1  0  0  0  0  0  0  0  0  0
   26.5754   11.4069  -10.9014 H   0  0  0  0  0  0  0  0  0  0  0  0
   28.6094   11.3983  -12.1553 H   0  0  0  0  0  0  0  0  0  0  0  0
   30.5986   10.1481  -12.9775 H   0  0  0  0  0  0  0  0  0  0  0  0
   30.8653    7.7412  -12.4418 H   0  0  0  0  0  0  0  0  0  0  0  0
   29.2329    6.5859  -10.9668 H   0  0  0  0  0  0  0  0  0  0  0  0
   25.5355    9.0524   -7.4511 H   0  0  0  0  0  0  0  0  0  0  0  0
   24.1314    7.9235   -7.0904 H   0  0  0  0  0  0  0  0  0  0  0  0
   23.7848    9.8676   -9.6696 H   0  0  0  0  0  0  0  0  0  0  0  0
   22.5650   13.5312   -6.8105 H   0  0  0  0  0  0  0  0  0  0  0  0
   22.4179   11.4143   -8.0401 H   0  0  0  0  0  0  0  0  0  0  0  0
   26.8177   16.2003   -6.4591 H   0  0  0  0  0  0  0  0  0  0  0  0
   27.6297   14.1217   -7.9691 H   0  0  0  0  0  0  0  0  0  0  0  0
   25.8568    7.3205   -5.5825 H   0  0  0  0  0  0  0  0  0  0  0  0
   25.8402    6.0724   -6.8743 H   0  0  0  0  0  0  0  0  0  0  0  0
   27.1047    7.3482   -6.8743 H   0  0  0  0  0  0  0  0  0  0  0  0
  1 11  1  0
  1  5  1  0
  1  2  2  0
  2  3  1  0
  3  7  2  0
  3  4  1  0
  5  8  1  0
  5  6  2  0
  6  7  1  0
  7 13  1  0
  8  9  2  0
  9 10  1  0
 10 11  2  0
 13 14  1  0
 14 15  1  0
 14 19  2  0
 15 16  2  0
 16 22  1  0
 16 17  1  0
 17 18  1  0
 17 20  2  0
 18 19  1  0
 20 21  1  0
 21 22  2  0
  4 12  1  0
 12 23  1  0
  6 24  1  0
  8 25  1  0
  9 26  1  0
 10 27  1  0
 11 28  1  0
 12 29  1  6
 12 30  1  0
 13 31  1  0
 18 32  1  0
 19 33  1  0
 21 34  1  0
 22 35  1  0
 23 36  1  1
 23 37  1  0
 23 38  1  0
M  END
>  <Pose ID>  (185)
136

>  <Score>  (185)
-5.680387496948242

>  <smiles>  (185)
CCOc1nc2ccccc2cc1Nc1c[nH]c2nccc-2n1

$$$$

     RDKit          3D

 46 48  0  0  0  0  0  0  0  0999 V2000
   25.8070   13.8360   -7.8080 C   0  0  0  0  0  0  0  0  0  0  0  0
   25.4940   12.6390   -8.4330 N   0  0  0  0  0  0  0  0  0  0  0  0
   26.4340   12.0130   -9.2410 C   0  0  0  0  0  0  0  0  0  0  0  0
   27.6860   12.5900   -9.4250 N   0  0  0  0  0  0  0  0  0  0  0  0
   27.0560   14.4130   -7.9870 C   0  0  0  0  0  0  0  0  0  0  0  0
   27.9960   13.7900   -8.7990 C   0  0  0  0  0  0  0  0  0  0  0  0
   25.8960   10.8520   -9.7440 N   0  0  0  0  0  0  0  0  0  0  0  0
   25.9830    9.5930   -9.0530 C   0  0  2  0  0  0  0  0  0  0  0  0
   27.3570    9.5320   -8.3070 C   0  0  1  0  0  0  0  0  0  0  0  0
   27.6560    8.1860   -7.7610 C   0  0  1  0  0  0  0  0  0  0  0  0
   27.5480    7.1800   -8.7900 O   0  0  0  0  0  0  0  0  0  0  0  0
   26.1780    7.0980   -9.2210 C   0  0  1  0  0  0  0  0  0  0  0  0
   25.8180    8.3830   -9.9310 C   0  0  1  0  0  0  0  0  0  0  0  0
   27.5960   15.5700   -7.4790 N   0  0  0  0  0  0  0  0  0  0  0  0
   27.4240   16.8640   -7.9060 C   0  0  0  0  0  0  0  0  0  0  0  0
   28.5000   17.5930   -8.4020 C   0  0  0  0  0  0  0  0  0  0  0  0
   28.2950   18.8670   -8.9200 C   0  0  0  0  0  0  0  0  0  0  0  0
   27.0170   19.4120   -8.9410 N   0  0  0  0  0  0  0  0  0  0  0  0
   25.9430   18.6830   -8.4450 C   0  0  0  0  0  0  0  0  0  0  0  0
   26.1470   17.4100   -7.9270 C   0  0  0  0  0  0  0  0  0  0  0  0
   24.7850   14.5160   -6.9300 C   0  0  2  0  0  0  0  0  0  0  0  0
   25.4920   14.9760   -5.6930 C   0  0  1  0  0  0  0  0  0  0  0  0
   23.6910   13.5380   -6.5440 C   0  0  1  0  0  0  0  0  0  0  0  0
   28.9855   14.2474   -8.9458 H   0  0  0  0  0  0  0  0  0  0  0  0
   25.4111   10.8849  -10.6521 H   0  0  0  0  0  0  0  0  0  0  0  0
   25.1368    9.5553   -8.3512 H   0  0  0  0  0  0  0  0  0  0  0  0
   28.1531    9.8092   -9.0137 H   0  0  0  0  0  0  0  0  0  0  0  0
   27.3037   10.2292   -7.4578 H   0  0  0  0  0  0  0  0  0  0  0  0
   28.6790    8.1799   -7.3567 H   0  0  0  0  0  0  0  0  0  0  0  0
   26.9292    7.9580   -6.9674 H   0  0  0  0  0  0  0  0  0  0  0  0
   26.0561    6.2480   -9.9085 H   0  0  0  0  0  0  0  0  0  0  0  0
   25.5190    6.9512   -8.3526 H   0  0  0  0  0  0  0  0  0  0  0  0
   24.7689    8.3240  -10.2565 H   0  0  0  0  0  0  0  0  0  0  0  0
   26.5015    8.4950  -10.7856 H   0  0  0  0  0  0  0  0  0  0  0  0
   28.2157   15.4502   -6.6651 H   0  0  0  0  0  0  0  0  0  0  0  0
   29.5119   17.1620   -8.3844 H   0  0  0  0  0  0  0  0  0  0  0  0
   29.1451   19.4438   -9.3134 H   0  0  0  0  0  0  0  0  0  0  0  0
   24.9310   19.1139   -8.4625 H   0  0  0  0  0  0  0  0  0  0  0  0
   25.2965   16.8341   -7.5332 H   0  0  0  0  0  0  0  0  0  0  0  0
   24.3258   15.3605   -7.4647 H   0  0  0  0  0  0  0  0  0  0  0  0
   24.9469   14.6214   -4.8058 H   0  0  0  0  0  0  0  0  0  0  0  0
   26.5141   14.5695   -5.6822 H   0  0  0  0  0  0  0  0  0  0  0  0
   25.5344   16.0751   -5.6822 H   0  0  0  0  0  0  0  0  0  0  0  0
   23.6233   13.4775   -5.4478 H   0  0  0  0  0  0  0  0  0  0  0  0
   22.7297   13.8833   -6.9522 H   0  0  0  0  0  0  0  0  0  0  0  0
   23.9269   12.5442   -6.9522 H   0  0  0  0  0  0  0  0  0  0  0  0
  1  2  2  0
  1  5  1  0
  1 21  1  0
  2  3  1  0
  3  7  1  0
  3  4  2  0
  4  6  1  0
  5  6  2  0
  5 14  1  0
  7  8  1  0
  8 13  1  0
  8  9  1  0
  9 10  1  0
 10 11  1  0
 11 12  1  0
 12 13  1  0
 21 23  1  0
 21 22  1  0
 14 15  1  0
 15 16  2  0
 15 20  1  0
 16 17  1  0
 17 18  2  0
 18 19  1  0
 19 20  2  0
  6 24  1  0
  7 25  1  0
  8 26  1  1
  9 27  1  6
  9 28  1  0
 10 29  1  1
 10 30  1  0
 12 31  1  6
 12 32  1  0
 13 33  1  6
 13 34  1  0
 14 35  1  0
 16 36  1  0
 17 37  1  0
 19 38  1  0
 20 39  1  0
 21 40  1  6
 22 41  1  1
 22 42  1  0
 22 43  1  0
 23 44  1  1
 23 45  1  0
 23 46  1  0
M  END
>  <Pose ID>  (186)
245

>  <Score>  (186)
-5.679263591766357

>  <smiles>  (186)
CC(C)c1nc(NC2CCOCC2)ncc1Nc1ccncc1

$$$$

     RDKit          3D

 24 26  0  0  0  0  0  0  0  0999 V2000
   28.6580    7.1300  -10.7500 C   0  0  0  0  0  0  0  0  0  0  0  0
   27.7130    7.0870   -9.7320 N   0  0  0  0  0  0  0  0  0  0  0  0
   26.9180    8.1970   -9.4750 C   0  0  0  0  0  0  0  0  0  0  0  0
   27.0700    9.3530  -10.2320 C   0  0  0  0  0  0  0  0  0  0  0  0
   28.0130    9.3970  -11.2510 C   0  0  0  0  0  0  0  0  0  0  0  0
   28.8400    8.3150  -11.5010 C   0  0  0  0  0  0  0  0  0  0  0  0
   27.9370   10.5970  -11.8520 N   0  0  0  0  0  0  0  0  0  0  0  0
   26.9460   11.2730  -11.1990 O   0  0  0  0  0  0  0  0  0  0  0  0
   26.4380   10.5550  -10.2720 C   0  0  0  0  0  0  0  0  0  0  0  0
   25.9290    8.3990   -8.5420 N   0  0  0  0  0  0  0  0  0  0  0  0
   25.9500    9.3920   -7.4040 C   0  0  0  0  0  0  0  0  0  0  0  0
   27.1340   10.1200   -7.4110 C   0  0  0  0  0  0  0  0  0  0  0  0
   27.3520   11.1020   -6.4520 C   0  0  0  0  0  0  0  0  0  0  0  0
   26.3870   11.3560   -5.4850 N   0  0  0  0  0  0  0  0  0  0  0  0
   25.2030   10.6270   -5.4770 C   0  0  0  0  0  0  0  0  0  0  0  0
   24.9950    9.6280   -6.4290 C   0  0  0  0  0  0  0  0  0  0  0  0
   29.2659    6.2406  -10.9724 H   0  0  0  0  0  0  0  0  0  0  0  0
   29.6244    8.3757  -12.2697 H   0  0  0  0  0  0  0  0  0  0  0  0
   25.6160   10.8626   -9.6089 H   0  0  0  0  0  0  0  0  0  0  0  0
   25.0865    7.8126   -8.6277 H   0  0  0  0  0  0  0  0  0  0  0  0
   27.8987    9.9189   -8.1757 H   0  0  0  0  0  0  0  0  0  0  0  0
   28.2889   11.6784   -6.4585 H   0  0  0  0  0  0  0  0  0  0  0  0
   24.4316   10.8374   -4.7216 H   0  0  0  0  0  0  0  0  0  0  0  0
   24.0731    9.0284   -6.4051 H   0  0  0  0  0  0  0  0  0  0  0  0
  1  6  2  0
  1  2  1  0
  2  3  2  0
  3  4  1  0
  3 10  1  0
  4  5  1  0
  4  9  2  0
  5  7  2  0
  5  6  1  0
  7  8  1  0
  8  9  1  0
 10 11  1  0
 11 12  2  0
 11 16  1  0
 12 13  1  0
 13 14  2  0
 14 15  1  0
 15 16  2  0
  1 17  1  0
  6 18  1  0
  9 19  1  0
 10 20  1  0
 12 21  1  0
 13 22  1  0
 15 23  1  0
 16 24  1  0
M  END
>  <Pose ID>  (187)
15

>  <Score>  (187)
-5.646168231964111

>  <smiles>  (187)
c1cc(Nc2nccc3nocc23)ccn1

$$$$

     RDKit          3D

 37 39  0  0  0  0  0  0  0  0999 V2000
   26.4380   14.3370   -8.0520 C   0  0  0  0  0  0  0  0  0  0  0  0
   25.9140   13.1190   -8.4570 N   0  0  0  0  0  0  0  0  0  0  0  0
   26.5780   12.3630   -9.4140 C   0  0  0  0  0  0  0  0  0  0  0  0
   27.7670   12.8290   -9.9650 N   0  0  0  0  0  0  0  0  0  0  0  0
   27.6260   14.8030   -8.5980 C   0  0  0  0  0  0  0  0  0  0  0  0
   28.2900   14.0480   -9.5570 C   0  0  0  0  0  0  0  0  0  0  0  0
   25.8700   11.2070   -9.6470 N   0  0  0  0  0  0  0  0  0  0  0  0
   26.0690   10.0050   -8.8830 C   0  0  2  0  0  0  0  0  0  0  0  0
   27.5840    9.9040   -8.5060 C   0  0  1  0  0  0  0  0  0  0  0  0
   27.9470    8.5870   -7.9250 C   0  0  1  0  0  0  0  0  0  0  0  0
   27.5240    7.5120   -8.7910 O   0  0  0  0  0  0  0  0  0  0  0  0
   26.0870    7.4970   -8.8490 C   0  0  1  0  0  0  0  0  0  0  0  0
   25.6210    8.7440   -9.5660 C   0  0  1  0  0  0  0  0  0  0  0  0
   28.3350   15.9560   -8.3590 N   0  0  0  0  0  0  0  0  0  0  0  0
   27.9740   17.2600   -8.8840 C   0  0  0  0  0  0  0  0  0  0  0  0
   28.9880   17.8440   -9.6340 C   0  0  0  0  0  0  0  0  0  0  0  0
   28.7910   19.0900  -10.2180 C   0  0  0  0  0  0  0  0  0  0  0  0
   27.5790   19.7520  -10.0520 N   0  0  0  0  0  0  0  0  0  0  0  0
   26.5650   19.1670   -9.3020 C   0  0  0  0  0  0  0  0  0  0  0  0
   26.7740   17.9250   -8.7010 C   0  0  0  0  0  0  0  0  0  0  0  0
   25.9104   14.9362   -7.2953 H   0  0  0  0  0  0  0  0  0  0  0  0
   29.2303   14.4165   -9.9929 H   0  0  0  0  0  0  0  0  0  0  0  0
   25.1677   11.2020  -10.4004 H   0  0  0  0  0  0  0  0  0  0  0  0
   25.4316   10.0865   -7.9902 H   0  0  0  0  0  0  0  0  0  0  0  0
   28.1834   10.0644   -9.4143 H   0  0  0  0  0  0  0  0  0  0  0  0
   27.7864   10.6694   -7.7423 H   0  0  0  0  0  0  0  0  0  0  0  0
   29.0383    8.5381   -7.7956 H   0  0  0  0  0  0  0  0  0  0  0  0
   27.4417    8.4780   -6.9540 H   0  0  0  0  0  0  0  0  0  0  0  0
   25.7474    6.6056   -9.3968 H   0  0  0  0  0  0  0  0  0  0  0  0
   25.6697    7.4699   -7.8316 H   0  0  0  0  0  0  0  0  0  0  0  0
   24.5218    8.7369   -9.6068 H   0  0  0  0  0  0  0  0  0  0  0  0
   26.0645    8.7348  -10.5726 H   0  0  0  0  0  0  0  0  0  0  0  0
   29.1769   15.8903   -7.7692 H   0  0  0  0  0  0  0  0  0  0  0  0
   29.9463   17.3203   -9.7654 H   0  0  0  0  0  0  0  0  0  0  0  0
   29.5935   19.5524  -10.8114 H   0  0  0  0  0  0  0  0  0  0  0  0
   25.6003   19.6819   -9.1826 H   0  0  0  0  0  0  0  0  0  0  0  0
   25.9846   17.4743   -8.0815 H   0  0  0  0  0  0  0  0  0  0  0  0
  1  5  2  0
  1  2  1  0
  2  3  2  0
  3  4  1  0
  3  7  1  0
  4  6  2  0
  5  6  1  0
  5 14  1  0
  7  8  1  0
  8 13  1  0
  8  9  1  0
  9 10  1  0
 10 11  1  0
 11 12  1  0
 12 13  1  0
 14 15  1  0
 15 16  2  0
 15 20  1  0
 16 17  1  0
 17 18  2  0
 18 19  1  0
 19 20  2  0
  1 21  1  0
  6 22  1  0
  7 23  1  0
  8 24  1  1
  9 25  1  6
  9 26  1  0
 10 27  1  1
 10 28  1  0
 12 29  1  6
 12 30  1  0
 13 31  1  6
 13 32  1  0
 14 33  1  0
 16 34  1  0
 17 35  1  0
 19 36  1  0
 20 37  1  0
M  END
>  <Pose ID>  (188)
217

>  <Score>  (188)
-5.642997741699219

>  <smiles>  (188)
c1cc(Nc2cnc(NC3CCOCC3)nc2)ccn1

$$$$

     RDKit          3D

 25 26  0  0  0  0  0  0  0  0999 V2000
   27.7350    8.4980  -10.2710 C   0  0  0  0  0  0  0  0  0  0  0  0
   27.4430    7.2180   -9.8140 N   0  0  0  0  0  0  0  0  0  0  0  0
   26.6080    7.0440   -8.7170 C   0  0  0  0  0  0  0  0  0  0  0  0
   26.0650    8.1520   -8.0750 C   0  0  0  0  0  0  0  0  0  0  0  0
   27.1920    9.6030   -9.6270 C   0  0  0  0  0  0  0  0  0  0  0  0
   26.3810    9.4460   -8.5410 C   0  0  0  0  0  0  0  0  0  0  0  0
   28.5710    8.4100  -11.3580 N   0  0  0  0  0  0  0  0  0  0  0  0
   29.0330    9.6480  -11.9780 C   0  0  0  0  0  0  0  0  0  0  0  0
   30.4040    9.8510  -12.0550 N   0  0  0  0  0  0  0  0  0  0  0  0
   30.9050   11.0000  -12.6550 C   0  0  0  0  0  0  0  0  0  0  0  0
   30.0340   11.9480  -13.1760 C   0  0  0  0  0  0  0  0  0  0  0  0
   28.6600   11.7460  -13.1000 C   0  0  0  0  0  0  0  0  0  0  0  0
   28.1610   10.5970  -12.5010 N   0  0  0  0  0  0  0  0  0  0  0  0
   28.0130   12.8150  -13.6820 O   0  0  0  0  0  0  0  0  0  0  0  0
   28.1580   14.0820  -13.4850 C   0  0  1  0  0  0  0  0  0  0  0  0
   26.3766    6.0308   -8.3566 H   0  0  0  0  0  0  0  0  0  0  0  0
   25.3955    8.0208   -7.2121 H   0  0  0  0  0  0  0  0  0  0  0  0
   27.4181   10.6142   -9.9963 H   0  0  0  0  0  0  0  0  0  0  0  0
   25.9729   10.3293   -8.0280 H   0  0  0  0  0  0  0  0  0  0  0  0
   28.8642    7.4937  -11.7259 H   0  0  0  0  0  0  0  0  0  0  0  0
   31.9917   11.1587  -12.7173 H   0  0  0  0  0  0  0  0  0  0  0  0
   30.4308   12.8585  -13.6487 H   0  0  0  0  0  0  0  0  0  0  0  0
   28.1812   14.2847  -12.4041 H   0  0  0  0  0  0  0  0  0  0  0  0
   29.1005   14.4186  -13.9415 H   0  0  0  0  0  0  0  0  0  0  0  0
   27.3159   14.6228  -13.9415 H   0  0  0  0  0  0  0  0  0  0  0  0
  1  7  1  0
  1  2  2  0
  1  5  1  0
  2  3  1  0
  3  4  2  0
  4  6  1  0
  5  6  2  0
  7  8  1  0
  8 13  1  0
  8  9  2  0
  9 10  1  0
 10 11  2  0
 11 12  1  0
 12 14  1  0
 12 13  2  0
 14 15  1  0
  3 16  1  0
  4 17  1  0
  5 18  1  0
  6 19  1  0
  7 20  1  0
 10 21  1  0
 11 22  1  0
 15 23  1  1
 15 24  1  0
 15 25  1  0
M  END
>  <Pose ID>  (189)
53

>  <Score>  (189)
-5.635884761810303

>  <smiles>  (189)
COc1ccnc(Nc2ccccn2)n1

$$$$

     RDKit          3D

 41 43  0  0  0  0  0  0  0  0999 V2000
   25.9330   14.1800   -8.1810 C   0  0  0  0  0  0  0  0  0  0  0  0
   25.6660   12.9690   -8.7990 N   0  0  0  0  0  0  0  0  0  0  0  0
   26.6860   12.2780   -9.4390 C   0  0  0  0  0  0  0  0  0  0  0  0
   27.9740   12.8030   -9.4590 N   0  0  0  0  0  0  0  0  0  0  0  0
   27.2180   14.7050   -8.1970 C   0  0  0  0  0  0  0  0  0  0  0  0
   28.2380   14.0160   -8.8390 C   0  0  0  0  0  0  0  0  0  0  0  0
   26.1810   11.1150   -9.9700 N   0  0  0  0  0  0  0  0  0  0  0  0
   26.1150    9.8840   -9.2290 C   0  0  2  0  0  0  0  0  0  0  0  0
   27.3630    9.8090   -8.2870 C   0  0  1  0  0  0  0  0  0  0  0  0
   27.5260    8.4770   -7.6530 C   0  0  1  0  0  0  0  0  0  0  0  0
   27.5280    7.4320   -8.6500 O   0  0  0  0  0  0  0  0  0  0  0  0
   26.2320    7.3790   -9.2720 C   0  0  1  0  0  0  0  0  0  0  0  0
   26.0310    8.6450  -10.0740 C   0  0  1  0  0  0  0  0  0  0  0  0
   27.7230   15.8650   -7.6600 N   0  0  0  0  0  0  0  0  0  0  0  0
   27.6770   17.1180   -8.2030 C   0  0  0  0  0  0  0  0  0  0  0  0
   26.4300   17.6760   -8.4620 C   0  0  0  0  0  0  0  0  0  0  0  0
   26.3400   18.9420   -9.0300 C   0  0  0  0  0  0  0  0  0  0  0  0
   27.4960   19.6490   -9.3390 N   0  0  0  0  0  0  0  0  0  0  0  0
   28.7430   19.0900   -9.0800 C   0  0  0  0  0  0  0  0  0  0  0  0
   28.8330   17.8260   -8.5120 C   0  0  0  0  0  0  0  0  0  0  0  0
   29.7780   19.7230   -9.3560 O   0  0  0  0  0  0  0  0  0  0  0  0
   24.8460   10.0760   -8.3720 C   0  0  1  0  0  0  0  0  0  0  0  0
   25.1237   14.7275   -7.6758 H   0  0  0  0  0  0  0  0  0  0  0  0
   29.2562   14.4319   -8.8562 H   0  0  0  0  0  0  0  0  0  0  0  0
   25.8350   11.1255  -10.9401 H   0  0  0  0  0  0  0  0  0  0  0  0
   28.2637   10.0291   -8.8788 H   0  0  0  0  0  0  0  0  0  0  0  0
   27.2144   10.5432   -7.4815 H   0  0  0  0  0  0  0  0  0  0  0  0
   28.4786    8.4532   -7.1035 H   0  0  0  0  0  0  0  0  0  0  0  0
   26.6837    8.3077   -6.9660 H   0  0  0  0  0  0  0  0  0  0  0  0
   26.1758    6.5053   -9.9380 H   0  0  0  0  0  0  0  0  0  0  0  0
   25.4493    7.2918   -8.5040 H   0  0  0  0  0  0  0  0  0  0  0  0
   25.0388    8.6082  -10.5475 H   0  0  0  0  0  0  0  0  0  0  0  0
   26.8360    8.6968  -10.8218 H   0  0  0  0  0  0  0  0  0  0  0  0
   28.1886   15.7802   -6.7452 H   0  0  0  0  0  0  0  0  0  0  0  0
   25.5152   17.1162   -8.2177 H   0  0  0  0  0  0  0  0  0  0  0  0
   25.3538   19.3840   -9.2348 H   0  0  0  0  0  0  0  0  0  0  0  0
   27.4293   20.5868   -9.7597 H   0  0  0  0  0  0  0  0  0  0  0  0
   29.8194   17.3847   -8.3064 H   0  0  0  0  0  0  0  0  0  0  0  0
   25.1139   10.0355   -7.3059 H   0  0  0  0  0  0  0  0  0  0  0  0
   24.3941   11.0527   -8.5996 H   0  0  0  0  0  0  0  0  0  0  0  0
   24.1254    9.2767   -8.5996 H   0  0  0  0  0  0  0  0  0  0  0  0
  1  2  2  0
  1  5  1  0
  2  3  1  0
  3  7  1  0
  3  4  2  0
  4  6  1  0
  5  6  2  0
  5 14  1  0
  8  7  1  6
  8 13  1  0
  8 22  1  0
  8  9  1  0
  9 10  1  0
 10 11  1  0
 11 12  1  0
 12 13  1  0
 14 15  1  0
 15 20  2  0
 15 16  1  0
 16 17  2  0
 17 18  1  0
 18 19  1  0
 19 21  2  0
 19 20  1  0
  1 23  1  0
  6 24  1  0
  7 25  1  0
  9 26  1  6
  9 27  1  0
 10 28  1  1
 10 29  1  0
 12 30  1  6
 12 31  1  0
 13 32  1  6
 13 33  1  0
 14 34  1  0
 16 35  1  0
 17 36  1  0
 18 37  1  0
 20 38  1  0
 22 39  1  1
 22 40  1  0
 22 41  1  0
M  END
>  <Pose ID>  (190)
214

>  <Score>  (190)
-5.626063823699951

>  <smiles>  (190)
CC1(Nc2ncc(Nc3cc[nH]c(=O)c3)cn2)CCOCC1

$$$$

     RDKit          3D

 16 17  0  0  0  0  0  0  0  0999 V2000
   28.0710    7.6560  -10.4950 C   0  0  0  0  0  0  0  0  0  0  0  0
   27.3170    7.0430   -9.5010 N   0  0  0  0  0  0  0  0  0  0  0  0
   26.3560    7.7710   -8.8090 C   0  0  0  0  0  0  0  0  0  0  0  0
   26.1500    9.1120   -9.1070 C   0  0  0  0  0  0  0  0  0  0  0  0
   26.9040    9.7270  -10.1000 C   0  0  0  0  0  0  0  0  0  0  0  0
   27.8900    9.0300  -10.7780 C   0  0  0  0  0  0  0  0  0  0  0  0
   26.4910   11.0000  -10.2220 N   0  0  0  0  0  0  0  0  0  0  0  0
   25.4910   11.1520   -9.3040 O   0  0  0  0  0  0  0  0  0  0  0  0
   25.2850   10.0640   -8.6690 C   0  0  0  0  0  0  0  0  0  0  0  0
   24.2430    9.8660   -7.5960 C   0  0  1  0  0  0  0  0  0  0  0  0
   28.8099    7.0714  -11.0626 H   0  0  0  0  0  0  0  0  0  0  0  0
   25.7579    7.2845   -8.0244 H   0  0  0  0  0  0  0  0  0  0  0  0
   28.5212    9.5359  -11.5234 H   0  0  0  0  0  0  0  0  0  0  0  0
   24.7144    9.9556   -6.6062 H   0  0  0  0  0  0  0  0  0  0  0  0
   23.4598   10.6314   -7.6998 H   0  0  0  0  0  0  0  0  0  0  0  0
   23.7951    8.8667   -7.6998 H   0  0  0  0  0  0  0  0  0  0  0  0
  1  6  2  0
  1  2  1  0
  2  3  2  0
  3  4  1  0
  4  5  1  0
  4  9  2  0
  5  6  1  0
  5  7  2  0
  7  8  1  0
  8  9  1  0
  9 10  1  0
  1 11  1  0
  3 12  1  0
  6 13  1  0
 10 14  1  1
 10 15  1  0
 10 16  1  0
M  END
>  <Pose ID>  (191)
14

>  <Score>  (191)
-5.602977752685547

>  <smiles>  (191)
Cc1onc2ccncc12

$$$$

     RDKit          3D

 28 29  0  0  0  0  0  0  0  0999 V2000
   27.7350    8.4900  -10.2740 C   0  0  0  0  0  0  0  0  0  0  0  0
   27.4510    7.2120   -9.8070 N   0  0  0  0  0  0  0  0  0  0  0  0
   26.6320    7.0420   -8.6980 C   0  0  0  0  0  0  0  0  0  0  0  0
   26.0960    8.1520   -8.0540 C   0  0  0  0  0  0  0  0  0  0  0  0
   27.1990    9.5970   -9.6280 C   0  0  0  0  0  0  0  0  0  0  0  0
   26.4030    9.4440   -8.5300 C   0  0  0  0  0  0  0  0  0  0  0  0
   28.5560    8.3980  -11.3720 N   0  0  0  0  0  0  0  0  0  0  0  0
   29.0070    9.6340  -12.0050 C   0  0  0  0  0  0  0  0  0  0  0  0
   30.3770    9.8390  -12.1010 N   0  0  0  0  0  0  0  0  0  0  0  0
   30.8670   10.9860  -12.7140 C   0  0  0  0  0  0  0  0  0  0  0  0
   29.9880   11.9300  -13.2270 C   0  0  0  0  0  0  0  0  0  0  0  0
   28.6150   11.7260  -13.1310 C   0  0  0  0  0  0  0  0  0  0  0  0
   28.1260   10.5790  -12.5200 N   0  0  0  0  0  0  0  0  0  0  0  0
   27.9580   12.7910  -13.7090 O   0  0  0  0  0  0  0  0  0  0  0  0
   28.1040   14.0590  -13.5200 C   0  0  1  0  0  0  0  0  0  0  0  0
   25.8500   10.6590   -7.8250 C   0  0  1  0  0  0  0  0  0  0  0  0
   26.4076    6.0302   -8.3294 H   0  0  0  0  0  0  0  0  0  0  0  0
   25.4386    8.0237   -7.1814 H   0  0  0  0  0  0  0  0  0  0  0  0
   27.4183   10.6068  -10.0052 H   0  0  0  0  0  0  0  0  0  0  0  0
   28.8459    7.4804  -11.7392 H   0  0  0  0  0  0  0  0  0  0  0  0
   31.9525   11.1460  -12.7928 H   0  0  0  0  0  0  0  0  0  0  0  0
   30.3768   12.8390  -13.7092 H   0  0  0  0  0  0  0  0  0  0  0  0
   28.1281   14.2684  -12.4404 H   0  0  0  0  0  0  0  0  0  0  0  0
   29.0464   14.3921  -13.9792 H   0  0  0  0  0  0  0  0  0  0  0  0
   27.2619   14.5975  -13.9792 H   0  0  0  0  0  0  0  0  0  0  0  0
   25.9163   10.5133   -6.7367 H   0  0  0  0  0  0  0  0  0  0  0  0
   26.4328   11.5466   -8.1123 H   0  0  0  0  0  0  0  0  0  0  0  0
   24.7979   10.8024   -8.1123 H   0  0  0  0  0  0  0  0  0  0  0  0
  1  7  1  0
  1  2  2  0
  1  5  1  0
  2  3  1  0
  3  4  2  0
  4  6  1  0
  5  6  2  0
  6 16  1  0
  7  8  1  0
  8 13  1  0
  8  9  2  0
  9 10  1  0
 10 11  2  0
 11 12  1  0
 12 14  1  0
 12 13  2  0
 14 15  1  0
  3 17  1  0
  4 18  1  0
  5 19  1  0
  7 20  1  0
 10 21  1  0
 11 22  1  0
 15 23  1  1
 15 24  1  0
 15 25  1  0
 16 26  1  1
 16 27  1  0
 16 28  1  0
M  END
>  <Pose ID>  (192)
55

>  <Score>  (192)
-5.596567630767822

>  <smiles>  (192)
COc1ccnc(Nc2cc(C)ccn2)n1

$$$$

     RDKit          3D

 24 25  0  0  0  0  0  0  0  0999 V2000
   27.7420    8.4790  -10.2860 C   0  0  0  0  0  0  0  0  0  0  0  0
   27.4930    7.2080   -9.7810 N   0  0  0  0  0  0  0  0  0  0  0  0
   26.6170    7.0420   -8.7150 C   0  0  0  0  0  0  0  0  0  0  0  0
   25.9900    8.1490   -8.1530 C   0  0  0  0  0  0  0  0  0  0  0  0
   27.1150    9.5830   -9.7220 C   0  0  0  0  0  0  0  0  0  0  0  0
   26.2630    9.4350   -8.6670 C   0  0  0  0  0  0  0  0  0  0  0  0
   28.6320    8.3840  -11.3300 N   0  0  0  0  0  0  0  0  0  0  0  0
   29.0600    9.6150  -11.9890 C   0  0  0  0  0  0  0  0  0  0  0  0
   30.4220    9.8850  -12.0140 N   0  0  0  0  0  0  0  0  0  0  0  0
   30.8930   11.0290  -12.6460 C   0  0  0  0  0  0  0  0  0  0  0  0
   30.0000   11.9050  -13.2510 C   0  0  0  0  0  0  0  0  0  0  0  0
   28.6370   11.6360  -13.2270 C   0  0  0  0  0  0  0  0  0  0  0  0
   28.1670   10.4920  -12.5950 N   0  0  0  0  0  0  0  0  0  0  0  0
   25.6100   10.6480   -8.0500 C   0  0  1  0  0  0  0  0  0  0  0  0
   26.4197    6.0360   -8.3161 H   0  0  0  0  0  0  0  0  0  0  0  0
   25.2878    8.0235   -7.3156 H   0  0  0  0  0  0  0  0  0  0  0  0
   27.3074   10.5862  -10.1301 H   0  0  0  0  0  0  0  0  0  0  0  0
   28.9876    7.4681  -11.6392 H   0  0  0  0  0  0  0  0  0  0  0  0
   31.9721   11.2412  -12.6675 H   0  0  0  0  0  0  0  0  0  0  0  0
   30.3724   12.8122  -13.7493 H   0  0  0  0  0  0  0  0  0  0  0  0
   27.9307   12.3286  -13.7082 H   0  0  0  0  0  0  0  0  0  0  0  0
   25.6523   10.5694   -6.9536 H   0  0  0  0  0  0  0  0  0  0  0  0
   26.1417   11.5550   -8.3734 H   0  0  0  0  0  0  0  0  0  0  0  0
   24.5601   10.7036   -8.3734 H   0  0  0  0  0  0  0  0  0  0  0  0
  1  7  1  0
  1  2  2  0
  1  5  1  0
  2  3  1  0
  3  4  2  0
  4  6  1  0
  5  6  2  0
  6 14  1  0
  7  8  1  0
  8 13  1  0
  8  9  2  0
  9 10  1  0
 10 11  2  0
 11 12  1  0
 12 13  2  0
  3 15  1  0
  4 16  1  0
  5 17  1  0
  7 18  1  0
 10 19  1  0
 11 20  1  0
 12 21  1  0
 14 22  1  1
 14 23  1  0
 14 24  1  0
M  END
>  <Pose ID>  (193)
51

>  <Score>  (193)
-5.595504283905029

>  <smiles>  (193)
Cc1ccnc(Nc2ncccn2)c1

$$$$

     RDKit          3D

 41 43  0  0  0  0  0  0  0  0999 V2000
   26.0580   14.1650   -7.7990 C   0  0  0  0  0  0  0  0  0  0  0  0
   25.6250   12.9320   -8.2620 N   0  0  0  0  0  0  0  0  0  0  0  0
   26.3960   12.2240   -9.1740 C   0  0  0  0  0  0  0  0  0  0  0  0
   27.6020   12.7540   -9.6240 N   0  0  0  0  0  0  0  0  0  0  0  0
   27.2610   14.6960   -8.2440 C   0  0  0  0  0  0  0  0  0  0  0  0
   28.0320   13.9900   -9.1600 C   0  0  0  0  0  0  0  0  0  0  0  0
   25.7640   11.0420   -9.4780 N   0  0  0  0  0  0  0  0  0  0  0  0
   25.9610    9.8370   -8.7190 C   0  0  2  0  0  0  0  0  0  0  0  0
   27.4460    9.7990   -8.2260 C   0  0  1  0  0  0  0  0  0  0  0  0
   27.8250    8.4910   -7.6380 C   0  0  1  0  0  0  0  0  0  0  0  0
   27.5220    7.4130   -8.5500 O   0  0  0  0  0  0  0  0  0  0  0  0
   26.0960    7.3320   -8.7200 C   0  0  1  0  0  0  0  0  0  0  0  0
   25.6280    8.5680   -9.4530 C   0  0  1  0  0  0  0  0  0  0  0  0
   27.8930   15.8750   -7.9340 N   0  0  0  0  0  0  0  0  0  0  0  0
   27.6500   17.1190   -8.4710 C   0  0  0  0  0  0  0  0  0  0  0  0
   28.6340   17.8210   -9.1570 C   0  0  0  0  0  0  0  0  0  0  0  0
   28.3440   19.0600   -9.7130 C   0  0  0  0  0  0  0  0  0  0  0  0
   27.0690   19.5990   -9.5840 C   0  0  0  0  0  0  0  0  0  0  0  0
   26.0850   18.8970   -8.8970 N   0  0  0  0  0  0  0  0  0  0  0  0
   26.3730   17.6630   -8.3360 C   0  0  0  0  0  0  0  0  0  0  0  0
   26.8100   20.7090  -10.0820 O   0  0  0  0  0  0  0  0  0  0  0  0
   29.4120   19.8210  -10.4590 C   0  0  1  0  0  0  0  0  0  0  0  0
   25.4460   14.7246   -7.0763 H   0  0  0  0  0  0  0  0  0  0  0  0
   28.9834   14.4107   -9.5175 H   0  0  0  0  0  0  0  0  0  0  0  0
   25.1223   11.0185  -10.2834 H   0  0  0  0  0  0  0  0  0  0  0  0
   25.2530    9.8733   -7.8779 H   0  0  0  0  0  0  0  0  0  0  0  0
   28.1056   10.0034   -9.0823 H   0  0  0  0  0  0  0  0  0  0  0  0
   27.5519   10.5588   -7.4376 H   0  0  0  0  0  0  0  0  0  0  0  0
   28.9041    8.4904   -7.4244 H   0  0  0  0  0  0  0  0  0  0  0  0
   27.2518    8.3411   -6.7112 H   0  0  0  0  0  0  0  0  0  0  0  0
   25.8427    6.4357   -9.3052 H   0  0  0  0  0  0  0  0  0  0  0  0
   25.6032    7.2672   -7.7387 H   0  0  0  0  0  0  0  0  0  0  0  0
   24.5368    8.5104   -9.5796 H   0  0  0  0  0  0  0  0  0  0  0  0
   26.1482    8.5975  -10.4218 H   0  0  0  0  0  0  0  0  0  0  0  0
   28.6324   15.8226   -7.2189 H   0  0  0  0  0  0  0  0  0  0  0  0
   29.6429   17.3950   -9.2596 H   0  0  0  0  0  0  0  0  0  0  0  0
   25.1395   19.2951   -8.8048 H   0  0  0  0  0  0  0  0  0  0  0  0
   25.5956   17.1134   -7.7851 H   0  0  0  0  0  0  0  0  0  0  0  0
   30.0892   20.3035   -9.7389 H   0  0  0  0  0  0  0  0  0  0  0  0
   29.9839   19.1257  -11.0910 H   0  0  0  0  0  0  0  0  0  0  0  0
   28.9416   20.5886  -11.0910 H   0  0  0  0  0  0  0  0  0  0  0  0
  1  2  2  0
  1  5  1  0
  2  3  1  0
  3  4  2  0
  3  7  1  0
  4  6  1  0
  5  6  2  0
  5 14  1  0
  7  8  1  0
  8 13  1  0
  8  9  1  0
  9 10  1  0
 10 11  1  0
 11 12  1  0
 12 13  1  0
 14 15  1  0
 15 16  1  0
 15 20  2  0
 16 17  2  0
 17 22  1  0
 17 18  1  0
 18 21  2  0
 18 19  1  0
 19 20  1  0
  1 23  1  0
  6 24  1  0
  7 25  1  0
  8 26  1  1
  9 27  1  6
  9 28  1  0
 10 29  1  1
 10 30  1  0
 12 31  1  6
 12 32  1  0
 13 33  1  6
 13 34  1  0
 14 35  1  0
 16 36  1  0
 19 37  1  0
 20 38  1  0
 22 39  1  1
 22 40  1  0
 22 41  1  0
M  END
>  <Pose ID>  (194)
204

>  <Score>  (194)
-5.594406604766846

>  <smiles>  (194)
Cc1cc(Nc2cnc(NC3CCOCC3)nc2)c[nH]c1=O

$$$$

     RDKit          3D

 24 25  0  0  0  0  0  0  0  0999 V2000
   27.8460    8.2560  -10.2760 C   0  0  0  0  0  0  0  0  0  0  0  0
   27.4540    7.0540   -9.6970 N   0  0  0  0  0  0  0  0  0  0  0  0
   26.4460    7.0420   -8.7400 C   0  0  0  0  0  0  0  0  0  0  0  0
   25.8290    8.2260   -8.3640 C   0  0  0  0  0  0  0  0  0  0  0  0
   26.2230    9.4300   -8.9410 C   0  0  0  0  0  0  0  0  0  0  0  0
   27.2520    9.4460   -9.8770 C   0  0  0  0  0  0  0  0  0  0  0  0
   28.8230    8.2660  -11.2410 N   0  0  0  0  0  0  0  0  0  0  0  0
   29.2340    9.4650  -11.9020 C   0  0  0  0  0  0  0  0  0  0  0  0
   30.5790    9.8070  -11.9720 N   0  0  0  0  0  0  0  0  0  0  0  0
   30.9660   10.9820  -12.6050 C   0  0  0  0  0  0  0  0  0  0  0  0
   30.0060   11.8160  -13.1670 C   0  0  0  0  0  0  0  0  0  0  0  0
   28.6600   11.4750  -13.0970 N   0  0  0  0  0  0  0  0  0  0  0  0
   28.2760   10.2990  -12.4630 C   0  0  0  0  0  0  0  0  0  0  0  0
   30.4260   13.0940  -13.8530 C   0  0  1  0  0  0  0  0  0  0  0  0
   26.1370    6.0918   -8.2800 H   0  0  0  0  0  0  0  0  0  0  0  0
   25.0283    8.2136   -7.6098 H   0  0  0  0  0  0  0  0  0  0  0  0
   25.7216   10.3671   -8.6573 H   0  0  0  0  0  0  0  0  0  0  0  0
   27.5951   10.4013  -10.3010 H   0  0  0  0  0  0  0  0  0  0  0  0
   29.2761    7.3774  -11.4978 H   0  0  0  0  0  0  0  0  0  0  0  0
   32.0309   11.2520  -12.6614 H   0  0  0  0  0  0  0  0  0  0  0  0
   27.2113   10.0286  -12.4056 H   0  0  0  0  0  0  0  0  0  0  0  0
   30.6751   13.8519  -13.0957 H   0  0  0  0  0  0  0  0  0  0  0  0
   31.3077   12.9001  -14.4815 H   0  0  0  0  0  0  0  0  0  0  0  0
   29.6012   13.4609  -14.4815 H   0  0  0  0  0  0  0  0  0  0  0  0
  1  7  1  0
  1  6  1  0
  1  2  2  0
  2  3  1  0
  3  4  2  0
  4  5  1  0
  5  6  2  0
  7  8  1  0
  8 13  1  0
  8  9  2  0
  9 10  1  0
 10 11  2  0
 11 14  1  0
 11 12  1  0
 12 13  2  0
  3 15  1  0
  4 16  1  0
  5 17  1  0
  6 18  1  0
  7 19  1  0
 10 20  1  0
 13 21  1  0
 14 22  1  1
 14 23  1  0
 14 24  1  0
M  END
>  <Pose ID>  (195)
2

>  <Score>  (195)
-5.570599555969238

>  <smiles>  (195)
Cc1cnc(Nc2ccccn2)cn1

$$$$

     RDKit          3D

 43 45  0  0  0  0  0  0  0  0999 V2000
   25.8150   13.8710   -7.7440 C   0  0  0  0  0  0  0  0  0  0  0  0
   25.4740   12.6650   -8.3340 N   0  0  0  0  0  0  0  0  0  0  0  0
   26.3770   12.0220   -9.1700 C   0  0  0  0  0  0  0  0  0  0  0  0
   27.6230   12.5900   -9.4150 N   0  0  0  0  0  0  0  0  0  0  0  0
   27.0580   14.4390   -7.9850 C   0  0  0  0  0  0  0  0  0  0  0  0
   27.9630   13.7990   -8.8240 C   0  0  0  0  0  0  0  0  0  0  0  0
   25.8170   10.8540   -9.6290 N   0  0  0  0  0  0  0  0  0  0  0  0
   25.9280    9.6050   -8.9220 C   0  0  2  0  0  0  0  0  0  0  0  0
   27.3300    9.5530   -8.2300 C   0  0  1  0  0  0  0  0  0  0  0  0
   27.6490    8.2160   -7.6740 C   0  0  1  0  0  0  0  0  0  0  0  0
   27.4950    7.1920   -8.6810 O   0  0  0  0  0  0  0  0  0  0  0  0
   26.1090    7.1070   -9.0530 C   0  0  1  0  0  0  0  0  0  0  0  0
   25.7240    8.3810   -9.7680 C   0  0  1  0  0  0  0  0  0  0  0  0
   27.6200   15.6050   -7.5200 N   0  0  0  0  0  0  0  0  0  0  0  0
   27.4360   16.8910   -7.9630 C   0  0  0  0  0  0  0  0  0  0  0  0
   28.4920   17.6070   -8.5160 C   0  0  0  0  0  0  0  0  0  0  0  0
   28.2700   18.8720   -9.0460 C   0  0  0  0  0  0  0  0  0  0  0  0
   26.9940   19.4210   -9.0240 N   0  0  0  0  0  0  0  0  0  0  0  0
   25.9390   18.7050   -8.4720 C   0  0  0  0  0  0  0  0  0  0  0  0
   26.1610   17.4400   -7.9400 C   0  0  0  0  0  0  0  0  0  0  0  0
   29.3120   14.4180   -9.0920 C   0  0  1  0  0  0  0  0  0  0  0  0
   29.3240   15.1460  -10.4340 C   0  0  1  0  0  0  0  0  0  0  0  0
   25.0984   14.3799   -7.0825 H   0  0  0  0  0  0  0  0  0  0  0  0
   25.2955   10.8731  -10.5170 H   0  0  0  0  0  0  0  0  0  0  0  0
   25.1089    9.5817   -8.1882 H   0  0  0  0  0  0  0  0  0  0  0  0
   28.0979    9.8170   -8.9721 H   0  0  0  0  0  0  0  0  0  0  0  0
   27.3108   10.2638   -7.3908 H   0  0  0  0  0  0  0  0  0  0  0  0
   28.6882    8.2139   -7.3134 H   0  0  0  0  0  0  0  0  0  0  0  0
   26.9563    8.0038   -6.8463 H   0  0  0  0  0  0  0  0  0  0  0  0
   25.9565    6.2464   -9.7209 H   0  0  0  0  0  0  0  0  0  0  0  0
   25.4860    6.9760   -8.1559 H   0  0  0  0  0  0  0  0  0  0  0  0
   24.6621    8.3200  -10.0484 H   0  0  0  0  0  0  0  0  0  0  0  0
   26.3732    8.4755  -10.6510 H   0  0  0  0  0  0  0  0  0  0  0  0
   28.2701   15.4982   -6.7283 H   0  0  0  0  0  0  0  0  0  0  0  0
   29.5023   17.1722   -8.5338 H   0  0  0  0  0  0  0  0  0  0  0  0
   29.1050   19.4391   -9.4832 H   0  0  0  0  0  0  0  0  0  0  0  0
   24.9284   19.1390   -8.4559 H   0  0  0  0  0  0  0  0  0  0  0  0
   25.3264   16.8739   -7.5008 H   0  0  0  0  0  0  0  0  0  0  0  0
   29.5436   15.1359   -8.2914 H   0  0  0  0  0  0  0  0  0  0  0  0
   30.0652   13.6168   -9.1216 H   0  0  0  0  0  0  0  0  0  0  0  0
   29.3419   16.2323  -10.2617 H   0  0  0  0  0  0  0  0  0  0  0  0
   30.2174   14.8503  -11.0036 H   0  0  0  0  0  0  0  0  0  0  0  0
   28.4213   14.8799  -11.0036 H   0  0  0  0  0  0  0  0  0  0  0  0
  1  2  2  0
  1  5  1  0
  2  3  1  0
  3  7  1  0
  3  4  2  0
  4  6  1  0
  5  6  2  0
  5 14  1  0
  6 21  1  0
  7  8  1  0
  8 13  1  0
  8  9  1  0
  9 10  1  0
 10 11  1  0
 11 12  1  0
 12 13  1  0
 14 15  1  0
 15 16  2  0
 15 20  1  0
 16 17  1  0
 17 18  2  0
 18 19  1  0
 19 20  2  0
 21 22  1  0
  1 23  1  0
  7 24  1  0
  8 25  1  1
  9 26  1  6
  9 27  1  0
 10 28  1  1
 10 29  1  0
 12 30  1  6
 12 31  1  0
 13 32  1  6
 13 33  1  0
 14 34  1  0
 16 35  1  0
 17 36  1  0
 19 37  1  0
 20 38  1  0
 21 39  1  1
 21 40  1  0
 22 41  1  1
 22 42  1  0
 22 43  1  0
M  END
>  <Pose ID>  (196)
241

>  <Score>  (196)
-5.568485736846924

>  <smiles>  (196)
CCc1nc(NC2CCOCC2)ncc1Nc1ccncc1

$$$$

     RDKit          3D

 44 46  0  0  0  0  0  0  0  0999 V2000
   26.7720   14.1600   -7.7890 C   0  0  0  0  0  0  0  0  0  0  0  0
   26.1340   12.9650   -8.0760 N   0  0  0  0  0  0  0  0  0  0  0  0
   26.4930   12.2410   -9.2040 C   0  0  0  0  0  0  0  0  0  0  0  0
   27.4920   12.7190  -10.0470 N   0  0  0  0  0  0  0  0  0  0  0  0
   27.7700   14.6390   -8.6260 C   0  0  0  0  0  0  0  0  0  0  0  0
   28.1290   13.9180   -9.7580 C   0  0  0  0  0  0  0  0  0  0  0  0
   25.7290   11.1020   -9.2740 N   0  0  0  0  0  0  0  0  0  0  0  0
   26.1090    9.8680   -8.6380 C   0  0  2  0  0  0  0  0  0  0  0  0
   27.6670    9.7410   -8.7010 C   0  0  1  0  0  0  0  0  0  0  0  0
   28.1530    8.4000   -8.2920 C   0  0  1  0  0  0  0  0  0  0  0  0
   27.4870    7.3630   -9.0440 O   0  0  0  0  0  0  0  0  0  0  0  0
   26.0910    7.3600   -8.7020 C   0  0  1  0  0  0  0  0  0  0  0  0
   25.4670    8.6380   -9.2160 C   0  0  1  0  0  0  0  0  0  0  0  0
   28.5390   15.7770   -8.5510 N   0  0  0  0  0  0  0  0  0  0  0  0
   28.2090   17.0260   -8.9690 C   0  0  0  0  0  0  0  0  0  0  0  0
   28.9260   17.7040   -9.9490 C   0  0  0  0  0  0  0  0  0  0  0  0
   28.5220   18.9720  -10.3540 C   0  0  0  0  0  0  0  0  0  0  0  0
   27.4020   19.5600   -9.7790 C   0  0  0  0  0  0  0  0  0  0  0  0
   26.6860   18.8830   -8.7990 N   0  0  0  0  0  0  0  0  0  0  0  0
   27.0890   17.6160   -8.3940 C   0  0  0  0  0  0  0  0  0  0  0  0
   27.0410   20.6940  -10.1420 O   0  0  0  0  0  0  0  0  0  0  0  0
   25.4690   19.4160   -8.1070 C   0  0  1  0  0  0  0  0  0  0  0  0
   25.6790   10.0990   -7.1740 C   0  0  1  0  0  0  0  0  0  0  0  0
   26.4866   14.7320   -6.8938 H   0  0  0  0  0  0  0  0  0  0  0  0
   28.9175   14.2970  -10.4248 H   0  0  0  0  0  0  0  0  0  0  0  0
   24.8465   11.1321   -9.8042 H   0  0  0  0  0  0  0  0  0  0  0  0
   27.9935    9.9329   -9.7337 H   0  0  0  0  0  0  0  0  0  0  0  0
   28.0872   10.4739   -7.9965 H   0  0  0  0  0  0  0  0  0  0  0  0
   29.2362    8.3381   -8.4732 H   0  0  0  0  0  0  0  0  0  0  0  0
   27.9352    8.2564   -7.2234 H   0  0  0  0  0  0  0  0  0  0  0  0
   25.5974    6.4935   -9.1662 H   0  0  0  0  0  0  0  0  0  0  0  0
   25.9711    7.2951   -7.6105 H   0  0  0  0  0  0  0  0  0  0  0  0
   24.3994    8.6402   -8.9509 H   0  0  0  0  0  0  0  0  0  0  0  0
   25.6146    8.6660  -10.3057 H   0  0  0  0  0  0  0  0  0  0  0  0
   29.4725   15.6693   -8.1293 H   0  0  0  0  0  0  0  0  0  0  0  0
   29.8124   17.2377  -10.4038 H   0  0  0  0  0  0  0  0  0  0  0  0
   29.0888   19.5088  -11.1289 H   0  0  0  0  0  0  0  0  0  0  0  0
   26.5219   17.0801   -7.6186 H   0  0  0  0  0  0  0  0  0  0  0  0
   25.6100   19.3543   -7.0178 H   0  0  0  0  0  0  0  0  0  0  0  0
   25.3120   20.4653   -8.3975 H   0  0  0  0  0  0  0  0  0  0  0  0
   24.5914   18.8199   -8.3975 H   0  0  0  0  0  0  0  0  0  0  0  0
   26.4435    9.6883   -6.4981 H   0  0  0  0  0  0  0  0  0  0  0  0
   25.5685   11.1779   -6.9902 H   0  0  0  0  0  0  0  0  0  0  0  0
   24.7184    9.5955   -6.9902 H   0  0  0  0  0  0  0  0  0  0  0  0
  1  5  2  0
  1  2  1  0
  2  3  2  0
  3  4  1  0
  3  7  1  0
  4  6  2  0
  5  6  1  0
  5 14  1  0
  8  7  1  6
  8 13  1  0
  8  9  1  0
  8 23  1  0
  9 10  1  0
 10 11  1  0
 11 12  1  0
 12 13  1  0
 14 15  1  0
 15 16  1  0
 15 20  2  0
 16 17  2  0
 17 18  1  0
 18 21  2  0
 18 19  1  0
 19 20  1  0
 19 22  1  0
  1 24  1  0
  6 25  1  0
  7 26  1  0
  9 27  1  6
  9 28  1  0
 10 29  1  1
 10 30  1  0
 12 31  1  6
 12 32  1  0
 13 33  1  6
 13 34  1  0
 14 35  1  0
 16 36  1  0
 17 37  1  0
 20 38  1  0
 22 39  1  1
 22 40  1  0
 22 41  1  0
 23 42  1  1
 23 43  1  0
 23 44  1  0
M  END
>  <Pose ID>  (197)
202

>  <Score>  (197)
-5.564271926879883

>  <smiles>  (197)
Cn1cc(Nc2cnc(NC3(C)CCOCC3)nc2)ccc1=O

$$$$

     RDKit          3D

 44 46  0  0  0  0  0  0  0  0999 V2000
   25.8700   13.9490   -8.0020 C   0  0  0  0  0  0  0  0  0  0  0  0
   25.5460   12.7460   -8.6100 N   0  0  0  0  0  0  0  0  0  0  0  0
   26.4900   12.0850   -9.3850 C   0  0  0  0  0  0  0  0  0  0  0  0
   27.7590   12.6310   -9.5500 N   0  0  0  0  0  0  0  0  0  0  0  0
   27.1350   14.4950   -8.1630 C   0  0  0  0  0  0  0  0  0  0  0  0
   28.0790   13.8360   -8.9400 C   0  0  0  0  0  0  0  0  0  0  0  0
   25.9390   10.9250   -9.8750 N   0  0  0  0  0  0  0  0  0  0  0  0
   25.9830    9.6790   -9.1610 C   0  0  2  0  0  0  0  0  0  0  0  0
   27.3380    9.6040   -8.3800 C   0  0  1  0  0  0  0  0  0  0  0  0
   27.5950    8.2630   -7.8010 C   0  0  1  0  0  0  0  0  0  0  0  0
   27.4900    7.2390   -8.8130 O   0  0  0  0  0  0  0  0  0  0  0  0
   26.1290    7.1770   -9.2730 C   0  0  1  0  0  0  0  0  0  0  0  0
   25.8130    8.4550  -10.0170 C   0  0  1  0  0  0  0  0  0  0  0  0
   27.6860   15.6510   -7.6660 N   0  0  0  0  0  0  0  0  0  0  0  0
   27.5500   16.9250   -8.1710 C   0  0  0  0  0  0  0  0  0  0  0  0
   28.6500   17.6560   -8.6020 C   0  0  0  0  0  0  0  0  0  0  0  0
   28.4730   18.9270   -9.1370 C   0  0  0  0  0  0  0  0  0  0  0  0
   27.1960   19.4660   -9.2390 C   0  0  0  0  0  0  0  0  0  0  0  0
   26.0950   18.7340   -8.8060 N   0  0  0  0  0  0  0  0  0  0  0  0
   26.2690   17.4680   -8.2680 C   0  0  0  0  0  0  0  0  0  0  0  0
   27.0370   20.6040   -9.7170 O   0  0  0  0  0  0  0  0  0  0  0  0
   24.8260    9.8320   -8.1520 C   0  0  1  0  0  0  0  0  0  0  0  0
   29.4540   14.4310   -9.1210 C   0  0  1  0  0  0  0  0  0  0  0  0
   25.1211   14.4726   -7.3896 H   0  0  0  0  0  0  0  0  0  0  0  0
   25.4744   10.9501  -10.7939 H   0  0  0  0  0  0  0  0  0  0  0  0
   28.1566    9.8505   -9.0722 H   0  0  0  0  0  0  0  0  0  0  0  0
   27.2791   10.3188   -7.5459 H   0  0  0  0  0  0  0  0  0  0  0  0
   28.6077    8.2435   -7.3719 H   0  0  0  0  0  0  0  0  0  0  0  0
   26.8448    8.0661   -7.0210 H   0  0  0  0  0  0  0  0  0  0  0  0
   26.0040    6.3158   -9.9459 H   0  0  0  0  0  0  0  0  0  0  0  0
   25.4477    7.0619   -8.4171 H   0  0  0  0  0  0  0  0  0  0  0  0
   24.7708    8.4111  -10.3660 H   0  0  0  0  0  0  0  0  0  0  0  0
   26.5189    8.5350  -10.8569 H   0  0  0  0  0  0  0  0  0  0  0  0
   28.2662   15.5540   -6.8205 H   0  0  0  0  0  0  0  0  0  0  0  0
   29.6606   17.2294   -8.5200 H   0  0  0  0  0  0  0  0  0  0  0  0
   29.3434   19.5059   -9.4795 H   0  0  0  0  0  0  0  0  0  0  0  0
   25.1488   19.1333   -8.8852 H   0  0  0  0  0  0  0  0  0  0  0  0
   25.3987   16.8932   -7.9185 H   0  0  0  0  0  0  0  0  0  0  0  0
   25.2234    9.7794   -7.1277 H   0  0  0  0  0  0  0  0  0  0  0  0
   24.3325   10.8032   -8.3045 H   0  0  0  0  0  0  0  0  0  0  0  0
   24.0971    9.0224   -8.3045 H   0  0  0  0  0  0  0  0  0  0  0  0
   29.9022   14.6250   -8.1354 H   0  0  0  0  0  0  0  0  0  0  0  0
   30.0877   13.7266   -9.6798 H   0  0  0  0  0  0  0  0  0  0  0  0
   29.3743   15.3751   -9.6798 H   0  0  0  0  0  0  0  0  0  0  0  0
  1  2  2  0
  1  5  1  0
  2  3  1  0
  3  7  1  0
  3  4  2  0
  4  6  1  0
  5  6  2  0
  5 14  1  0
  6 23  1  0
  8  7  1  6
  8 13  1  0
  8  9  1  0
  8 22  1  0
  9 10  1  0
 10 11  1  0
 11 12  1  0
 12 13  1  0
 14 15  1  0
 15 16  1  0
 15 20  2  0
 16 17  2  0
 17 18  1  0
 18 21  2  0
 18 19  1  0
 19 20  1  0
  1 24  1  0
  7 25  1  0
  9 26  1  6
  9 27  1  0
 10 28  1  1
 10 29  1  0
 12 30  1  6
 12 31  1  0
 13 32  1  6
 13 33  1  0
 14 34  1  0
 16 35  1  0
 17 36  1  0
 19 37  1  0
 20 38  1  0
 22 39  1  1
 22 40  1  0
 22 41  1  0
 23 42  1  1
 23 43  1  0
 23 44  1  0
M  END
>  <Pose ID>  (198)
209

>  <Score>  (198)
-5.510535717010498

>  <smiles>  (198)
Cc1nc(NC2(C)CCOCC2)ncc1Nc1ccc(=O)[nH]c1

$$$$

     RDKit          3D

 29 30  0  0  0  0  0  0  0  0999 V2000
   28.9680    7.2420  -10.5790 C   0  0  0  0  0  0  0  0  0  0  0  0
   27.7280    7.5720  -10.0510 N   0  0  0  0  0  0  0  0  0  0  0  0
   27.1290    8.7820  -10.3890 C   0  0  0  0  0  0  0  0  0  0  0  0
   27.7710    9.6560  -11.2550 N   0  0  0  0  0  0  0  0  0  0  0  0
   29.6120    8.1180  -11.4440 C   0  0  0  0  0  0  0  0  0  0  0  0
   29.0080    9.3240  -11.7820 C   0  0  0  0  0  0  0  0  0  0  0  0
   25.9270    9.3280  -10.0030 N   0  0  0  0  0  0  0  0  0  0  0  0
   25.7970   10.1960   -8.8640 C   0  0  2  0  0  0  0  0  0  0  0  0
   26.8030    9.7220   -7.7640 C   0  0  1  0  0  0  0  0  0  0  0  0
   26.5880   10.3950   -6.4590 C   0  0  1  0  0  0  0  0  0  0  0  0
   25.2110   10.2660   -6.0370 O   0  0  0  0  0  0  0  0  0  0  0  0
   24.3720   10.9860   -6.9570 C   0  0  1  0  0  0  0  0  0  0  0  0
   24.4090   10.2830   -8.2930 C   0  0  1  0  0  0  0  0  0  0  0  0
   29.7030   10.2740  -12.7250 C   0  0  1  0  0  0  0  0  0  0  0  0
   29.4417    6.2857  -10.3124 H   0  0  0  0  0  0  0  0  0  0  0  0
   30.5966    7.8583  -11.8601 H   0  0  0  0  0  0  0  0  0  0  0  0
   25.0848    9.1058  -10.5528 H   0  0  0  0  0  0  0  0  0  0  0  0
   26.0245   11.2141   -9.2130 H   0  0  0  0  0  0  0  0  0  0  0  0
   26.6849    8.6374   -7.6237 H   0  0  0  0  0  0  0  0  0  0  0  0
   27.8153    9.9814   -8.1074 H   0  0  0  0  0  0  0  0  0  0  0  0
   27.2416    9.9346   -5.7035 H   0  0  0  0  0  0  0  0  0  0  0  0
   26.8250   11.4635   -6.5693 H   0  0  0  0  0  0  0  0  0  0  0  0
   23.3396   11.0077   -6.5780 H   0  0  0  0  0  0  0  0  0  0  0  0
   24.7331   12.0193   -7.0656 H   0  0  0  0  0  0  0  0  0  0  0  0
   23.7718   10.8355   -8.9992 H   0  0  0  0  0  0  0  0  0  0  0  0
   24.0482    9.2555   -8.1381 H   0  0  0  0  0  0  0  0  0  0  0  0
   30.2548   11.0283  -12.1449 H   0  0  0  0  0  0  0  0  0  0  0  0
   30.4054    9.7130  -13.3589 H   0  0  0  0  0  0  0  0  0  0  0  0
   28.9557   10.7736  -13.3589 H   0  0  0  0  0  0  0  0  0  0  0  0
  1  5  2  0
  1  2  1  0
  2  3  2  0
  3  4  1  0
  3  7  1  0
  4  6  2  0
  5  6  1  0
  6 14  1  0
  7  8  1  0
  8 13  1  0
  8  9  1  0
  9 10  1  0
 10 11  1  0
 11 12  1  0
 12 13  1  0
  1 15  1  0
  5 16  1  0
  7 17  1  0
  8 18  1  6
  9 19  1  1
  9 20  1  0
 10 21  1  1
 10 22  1  0
 12 23  1  1
 12 24  1  0
 13 25  1  6
 13 26  1  0
 14 27  1  1
 14 28  1  0
 14 29  1  0
M  END
>  <Pose ID>  (199)
180

>  <Score>  (199)
-5.507335186004639

>  <smiles>  (199)
Cc1ccnc(NC2CCOCC2)n1

$$$$

     RDKit          3D

 44 46  0  0  0  0  0  0  0  0999 V2000
   26.9900   14.4800   -7.1200 C   0  0  0  0  0  0  0  0  0  0  0  0
   26.2840   13.3050   -7.3270 N   0  0  0  0  0  0  0  0  0  0  0  0
   26.1470   12.7960   -8.6110 C   0  0  0  0  0  0  0  0  0  0  0  0
   26.7160   13.4680   -9.6890 N   0  0  0  0  0  0  0  0  0  0  0  0
   27.5610   15.1510   -8.1930 C   0  0  0  0  0  0  0  0  0  0  0  0
   27.4210   14.6460   -9.4790 C   0  0  0  0  0  0  0  0  0  0  0  0
   25.4160   11.6340   -8.5610 N   0  0  0  0  0  0  0  0  0  0  0  0
   26.0170   10.3440   -8.3570 C   0  0  2  0  0  0  0  0  0  0  0  0
   27.4130   10.3320   -9.0640 C   0  0  1  0  0  0  0  0  0  0  0  0
   28.0170    8.9780   -9.1230 C   0  0  1  0  0  0  0  0  0  0  0  0
   27.0980    8.0320   -9.7100 O   0  0  0  0  0  0  0  0  0  0  0  0
   25.9630    7.8820   -8.8400 C   0  0  1  0  0  0  0  0  0  0  0  0
   25.1900    9.1810   -8.8280 C   0  0  1  0  0  0  0  0  0  0  0  0
   28.2970   16.3100   -8.2400 N   0  0  0  0  0  0  0  0  0  0  0  0
   27.8320   17.5870   -8.2670 C   0  0  0  0  0  0  0  0  0  0  0  0
   28.0880   18.4580   -9.3200 C   0  0  0  0  0  0  0  0  0  0  0  0
   27.5600   19.7430   -9.3010 C   0  0  0  0  0  0  0  0  0  0  0  0
   26.7750   20.1570   -8.2320 C   0  0  0  0  0  0  0  0  0  0  0  0
   26.5200   19.2870   -7.1790 N   0  0  0  0  0  0  0  0  0  0  0  0
   27.0480   18.0010   -7.1970 C   0  0  0  0  0  0  0  0  0  0  0  0
   26.3030   21.3080   -8.2160 O   0  0  0  0  0  0  0  0  0  0  0  0
   25.6720   19.9330   -6.2110 C   0  0  1  0  0  0  0  0  0  0  0  0
   28.9390   18.0090  -10.4820 C   0  0  1  0  0  0  0  0  0  0  0  0
   27.0982   14.8822   -6.1019 H   0  0  0  0  0  0  0  0  0  0  0  0
   27.8683   15.1788  -10.3310 H   0  0  0  0  0  0  0  0  0  0  0  0
   24.3938   11.6893   -8.6745 H   0  0  0  0  0  0  0  0  0  0  0  0
   26.1084   10.2053   -7.2696 H   0  0  0  0  0  0  0  0  0  0  0  0
   27.2900   10.7068  -10.0908 H   0  0  0  0  0  0  0  0  0  0  0  0
   28.0879   10.9699   -8.4744 H   0  0  0  0  0  0  0  0  0  0  0  0
   28.9320    9.0175   -9.7322 H   0  0  0  0  0  0  0  0  0  0  0  0
   28.2525    8.6520   -8.0992 H   0  0  0  0  0  0  0  0  0  0  0  0
   25.3183    7.0704   -9.2084 H   0  0  0  0  0  0  0  0  0  0  0  0
   26.2995    7.6353   -7.8222 H   0  0  0  0  0  0  0  0  0  0  0  0
   24.3252    9.0697   -8.1573 H   0  0  0  0  0  0  0  0  0  0  0  0
   24.8788    9.3918   -9.8618 H   0  0  0  0  0  0  0  0  0  0  0  0
   29.3208   16.1983   -8.2567 H   0  0  0  0  0  0  0  0  0  0  0  0
   27.7636   20.4332  -10.1330 H   0  0  0  0  0  0  0  0  0  0  0  0
   26.8452   17.3114   -6.3644 H   0  0  0  0  0  0  0  0  0  0  0  0
   26.0107   19.6750   -5.1967 H   0  0  0  0  0  0  0  0  0  0  0  0
   25.7230   21.0232   -6.3484 H   0  0  0  0  0  0  0  0  0  0  0  0
   24.6345   19.5943   -6.3484 H   0  0  0  0  0  0  0  0  0  0  0  0
   29.8523   17.5271  -10.1030 H   0  0  0  0  0  0  0  0  0  0  0  0
   28.3735   17.2919  -11.0951 H   0  0  0  0  0  0  0  0  0  0  0  0
   29.2117   18.8806  -11.0951 H   0  0  0  0  0  0  0  0  0  0  0  0
  1  5  2  0
  1  2  1  0
  2  3  2  0
  3  4  1  0
  3  7  1  0
  4  6  2  0
  5  6  1  0
  5 14  1  0
  7  8  1  0
  8  9  1  0
  8 13  1  0
  9 10  1  0
 10 11  1  0
 11 12  1  0
 12 13  1  0
 14 15  1  0
 15 16  1  0
 15 20  2  0
 16 23  1  0
 16 17  2  0
 17 18  1  0
 18 21  2  0
 18 19  1  0
 19 20  1  0
 19 22  1  0
  1 24  1  0
  6 25  1  0
  7 26  1  0
  8 27  1  1
  9 28  1  6
  9 29  1  0
 10 30  1  6
 10 31  1  0
 12 32  1  6
 12 33  1  0
 13 34  1  1
 13 35  1  0
 14 36  1  0
 17 37  1  0
 20 38  1  0
 22 39  1  1
 22 40  1  0
 22 41  1  0
 23 42  1  1
 23 43  1  0
 23 44  1  0
M  END
>  <Pose ID>  (200)
199

>  <Score>  (200)
-5.505825519561768

>  <smiles>  (200)
Cc1cc(=O)n(C)cc1Nc1cnc(NC2CCOCC2)nc1

$$$$

     RDKit          3D

 44 46  0  0  0  0  0  0  0  0999 V2000
   25.9390   14.0140   -7.2780 C   0  0  0  0  0  0  0  0  0  0  0  0
   25.5150   12.7960   -7.7860 N   0  0  0  0  0  0  0  0  0  0  0  0
   26.1920   12.2150   -8.8500 C   0  0  0  0  0  0  0  0  0  0  0  0
   27.2950   12.8570   -9.4060 N   0  0  0  0  0  0  0  0  0  0  0  0
   27.0400   14.6570   -7.8290 C   0  0  0  0  0  0  0  0  0  0  0  0
   27.7160   14.0780   -8.8970 C   0  0  0  0  0  0  0  0  0  0  0  0
   25.5900   11.0210   -9.1700 N   0  0  0  0  0  0  0  0  0  0  0  0
   25.9550    9.7760   -8.5520 C   0  0  2  0  0  0  0  0  0  0  0  0
   27.4930    9.7970   -8.2640 C   0  0  1  0  0  0  0  0  0  0  0  0
   28.0200    8.4740   -7.8470 C   0  0  1  0  0  0  0  0  0  0  0  0
   27.6540    7.4540   -8.8020 O   0  0  0  0  0  0  0  0  0  0  0  0
   26.2250    7.2930   -8.7900 C   0  0  1  0  0  0  0  0  0  0  0  0
   25.5950    8.5500   -9.3440 C   0  0  1  0  0  0  0  0  0  0  0  0
   27.6430   15.8470   -7.5030 N   0  0  0  0  0  0  0  0  0  0  0  0
   27.2610   17.1110   -7.8930 C   0  0  0  0  0  0  0  0  0  0  0  0
   28.1020   17.9280   -8.6380 C   0  0  0  0  0  0  0  0  0  0  0  0
   27.6720   19.1850   -9.0410 C   0  0  0  0  0  0  0  0  0  0  0  0
   26.3990   19.6270   -8.6990 C   0  0  0  0  0  0  0  0  0  0  0  0
   25.5580   18.8100   -7.9530 N   0  0  0  0  0  0  0  0  0  0  0  0
   25.9860   17.5570   -7.5440 C   0  0  0  0  0  0  0  0  0  0  0  0
   26.0140   20.7540   -9.0600 O   0  0  0  0  0  0  0  0  0  0  0  0
   28.5850   20.0720   -9.8510 C   0  0  1  0  0  0  0  0  0  0  0  0
   29.4650   19.2940  -10.7870 C   0  0  1  0  0  0  0  0  0  0  0  0
   25.4015   14.4731   -6.4352 H   0  0  0  0  0  0  0  0  0  0  0  0
   28.5849   14.5876   -9.3389 H   0  0  0  0  0  0  0  0  0  0  0  0
   24.8462   11.0188   -9.8825 H   0  0  0  0  0  0  0  0  0  0  0  0
   25.3680    9.6990   -7.6249 H   0  0  0  0  0  0  0  0  0  0  0  0
   28.0172   10.1113   -9.1786 H   0  0  0  0  0  0  0  0  0  0  0  0
   27.6640   10.4974   -7.4332 H   0  0  0  0  0  0  0  0  0  0  0  0
   29.1166    8.5275   -7.7784 H   0  0  0  0  0  0  0  0  0  0  0  0
   27.5884    8.2139   -6.8692 H   0  0  0  0  0  0  0  0  0  0  0  0
   25.9436    6.4314   -9.4133 H   0  0  0  0  0  0  0  0  0  0  0  0
   25.8746    7.1178   -7.7621 H   0  0  0  0  0  0  0  0  0  0  0  0
   24.5015    8.4310   -9.3310 H   0  0  0  0  0  0  0  0  0  0  0  0
   25.9763    8.6905  -10.3662 H   0  0  0  0  0  0  0  0  0  0  0  0
   28.4749   15.7872   -6.8986 H   0  0  0  0  0  0  0  0  0  0  0  0
   29.1093   17.5787   -8.9088 H   0  0  0  0  0  0  0  0  0  0  0  0
   24.6137   19.1368   -7.7033 H   0  0  0  0  0  0  0  0  0  0  0  0
   25.3221   16.9157   -6.9457 H   0  0  0  0  0  0  0  0  0  0  0  0
   27.9689   20.7659  -10.4417 H   0  0  0  0  0  0  0  0  0  0  0  0
   29.2388   20.6082   -9.1474 H   0  0  0  0  0  0  0  0  0  0  0  0
   30.1640   18.6760  -10.2044 H   0  0  0  0  0  0  0  0  0  0  0  0
   28.8428   18.6452  -11.4210 H   0  0  0  0  0  0  0  0  0  0  0  0
   30.0326   19.9910  -11.4210 H   0  0  0  0  0  0  0  0  0  0  0  0
  1  5  2  0
  1  2  1  0
  2  3  2  0
  3  4  1  0
  3  7  1  0
  4  6  2  0
  5  6  1  0
  5 14  1  0
  7  8  1  0
  8 13  1  0
  8  9  1  0
  9 10  1  0
 10 11  1  0
 11 12  1  0
 12 13  1  0
 14 15  1  0
 15 16  1  0
 15 20  2  0
 16 17  2  0
 17 22  1  0
 17 18  1  0
 18 21  2  0
 18 19  1  0
 19 20  1  0
 22 23  1  0
  1 24  1  0
  6 25  1  0
  7 26  1  0
  8 27  1  1
  9 28  1  6
  9 29  1  0
 10 30  1  1
 10 31  1  0
 12 32  1  6
 12 33  1  0
 13 34  1  6
 13 35  1  0
 14 36  1  0
 16 37  1  0
 19 38  1  0
 20 39  1  0
 22 40  1  6
 22 41  1  0
 23 42  1  1
 23 43  1  0
 23 44  1  0
M  END
>  <Pose ID>  (201)
207

>  <Score>  (201)
-5.505643367767334

>  <smiles>  (201)
CCc1cc(Nc2cnc(NC3CCOCC3)nc2)c[nH]c1=O

$$$$

     RDKit          3D

 23 25  0  0  0  0  0  0  0  0999 V2000
   28.1420    7.6190  -10.4810 C   0  0  0  0  0  0  0  0  0  0  0  0
   27.5340    7.0420   -9.3710 N   0  0  0  0  0  0  0  0  0  0  0  0
   26.7230    7.8070   -8.5460 C   0  0  0  0  0  0  0  0  0  0  0  0
   26.5220    9.1540   -8.8270 N   0  0  0  0  0  0  0  0  0  0  0  0
   27.1280    9.7310   -9.9360 C   0  0  0  0  0  0  0  0  0  0  0  0
   27.9220    9.0020  -10.7570 C   0  0  0  0  0  0  0  0  0  0  0  0
   27.0790   10.9930  -10.4020 N   0  0  0  0  0  0  0  0  0  0  0  0
   27.8060   11.0380  -11.4450 N   0  0  0  0  0  0  0  0  0  0  0  0
   28.3300    9.8820  -11.7010 C   0  0  0  0  0  0  0  0  0  0  0  0
   25.9110    9.8620   -7.8390 C   0  0  0  0  0  0  0  0  0  0  0  0
   26.1820    9.7130   -6.5940 C   0  0  0  0  0  0  0  0  0  0  0  0
   24.9430   10.8460   -8.0600 C   0  0  0  0  0  0  0  0  0  0  0  0
   24.5780   11.2820   -6.7560 C   0  0  0  0  0  0  0  0  0  0  0  0
   25.3440   10.5960   -5.9170 O   0  0  0  0  0  0  0  0  0  0  0  0
   24.4080   11.3350   -9.3840 C   0  0  1  0  0  0  0  0  0  0  0  0
   28.7853    7.0161  -11.1389 H   0  0  0  0  0  0  0  0  0  0  0  0
   26.2395    7.3489   -7.6706 H   0  0  0  0  0  0  0  0  0  0  0  0
   28.9963    9.6530  -12.5457 H   0  0  0  0  0  0  0  0  0  0  0  0
   26.9225    9.0297   -6.1527 H   0  0  0  0  0  0  0  0  0  0  0  0
   23.8174   12.0331   -6.4965 H   0  0  0  0  0  0  0  0  0  0  0  0
   23.6066   12.0675   -9.2076 H   0  0  0  0  0  0  0  0  0  0  0  0
   25.2197   11.8099   -9.9546 H   0  0  0  0  0  0  0  0  0  0  0  0
   24.0078   10.4840   -9.9546 H   0  0  0  0  0  0  0  0  0  0  0  0
  1  6  2  0
  1  2  1  0
  2  3  2  0
  3  4  1  0
  4  5  1  0
  4 10  1  0
  5  6  1  0
  5  7  2  0
  6  9  1  0
  7  8  1  0
  8  9  2  0
 10 12  1  0
 10 11  2  0
 11 14  1  0
 12 15  1  0
 12 13  2  0
 13 14  1  0
  1 16  1  0
  3 17  1  0
  9 18  1  0
 11 19  1  0
 13 20  1  0
 15 21  1  1
 15 22  1  0
 15 23  1  0
M  END
>  <Pose ID>  (202)
260

>  <Score>  (202)
-5.491444110870361

>  <smiles>  (202)
Cc1cocc1-n1cncc2cnnc1-2

$$$$

     RDKit          3D

 21 22  0  0  0  0  0  0  0  0999 V2000
   27.7540    8.4530  -10.2910 C   0  0  0  0  0  0  0  0  0  0  0  0
   27.5230    7.1960   -9.7440 N   0  0  0  0  0  0  0  0  0  0  0  0
   26.6550    7.0540   -8.6680 C   0  0  0  0  0  0  0  0  0  0  0  0
   26.0180    8.1710   -8.1380 C   0  0  0  0  0  0  0  0  0  0  0  0
   27.1170    9.5670   -9.7590 C   0  0  0  0  0  0  0  0  0  0  0  0
   26.2720    9.4430   -8.6950 C   0  0  0  0  0  0  0  0  0  0  0  0
   28.6390    8.3350  -11.3360 N   0  0  0  0  0  0  0  0  0  0  0  0
   29.0480    9.5490  -12.0370 C   0  0  0  0  0  0  0  0  0  0  0  0
   30.4070    9.8340  -12.0790 N   0  0  0  0  0  0  0  0  0  0  0  0
   30.8610   10.9630  -12.7500 C   0  0  0  0  0  0  0  0  0  0  0  0
   29.9540   11.8080  -13.3780 C   0  0  0  0  0  0  0  0  0  0  0  0
   28.5940   11.5240  -13.3370 C   0  0  0  0  0  0  0  0  0  0  0  0
   28.1420   10.3950  -12.6660 N   0  0  0  0  0  0  0  0  0  0  0  0
   26.4719    6.0591   -8.2359 H   0  0  0  0  0  0  0  0  0  0  0  0
   25.3226    8.0642   -7.2924 H   0  0  0  0  0  0  0  0  0  0  0  0
   27.2956   10.5588  -10.1999 H   0  0  0  0  0  0  0  0  0  0  0  0
   25.7882   10.3351   -8.2708 H   0  0  0  0  0  0  0  0  0  0  0  0
   29.0043    7.4140  -11.6174 H   0  0  0  0  0  0  0  0  0  0  0  0
   31.9373   11.1876  -12.7840 H   0  0  0  0  0  0  0  0  0  0  0  0
   30.3127   12.7026  -13.9081 H   0  0  0  0  0  0  0  0  0  0  0  0
   27.8766   12.1925  -13.8353 H   0  0  0  0  0  0  0  0  0  0  0  0
  1  7  1  0
  1  5  1  0
  1  2  2  0
  2  3  1  0
  3  4  2  0
  4  6  1  0
  5  6  2  0
  7  8  1  0
  8 13  1  0
  8  9  2  0
  9 10  1  0
 10 11  2  0
 11 12  1  0
 12 13  2  0
  3 14  1  0
  4 15  1  0
  5 16  1  0
  6 17  1  0
  7 18  1  0
 10 19  1  0
 11 20  1  0
 12 21  1  0
M  END
>  <Pose ID>  (203)
49

>  <Score>  (203)
-5.481288909912109

>  <smiles>  (203)
c1ccc(Nc2ncccn2)nc1

$$$$

     RDKit          3D

 43 45  0  0  0  0  0  0  0  0999 V2000
   25.7330   13.9110   -6.8650 C   0  0  0  0  0  0  0  0  0  0  0  0
   25.3220   12.7020   -7.4040 N   0  0  0  0  0  0  0  0  0  0  0  0
   25.9780   12.1780   -8.5100 C   0  0  0  0  0  0  0  0  0  0  0  0
   27.0450   12.8680   -9.0770 N   0  0  0  0  0  0  0  0  0  0  0  0
   26.7980   14.6010   -7.4270 C   0  0  0  0  0  0  0  0  0  0  0  0
   27.4540   14.0790   -8.5350 C   0  0  0  0  0  0  0  0  0  0  0  0
   25.3960   10.9820   -8.8570 N   0  0  0  0  0  0  0  0  0  0  0  0
   25.8090    9.7240   -8.2960 C   0  0  2  0  0  0  0  0  0  0  0  0
   27.3550    9.7730   -8.0570 C   0  0  1  0  0  0  0  0  0  0  0  0
   27.9270    8.4500   -7.7070 C   0  0  1  0  0  0  0  0  0  0  0  0
   27.5550    7.4560   -8.6860 O   0  0  0  0  0  0  0  0  0  0  0  0
   26.1310    7.2590   -8.6360 C   0  0  1  0  0  0  0  0  0  0  0  0
   25.4530    8.5190   -9.1210 C   0  0  1  0  0  0  0  0  0  0  0  0
   27.3850   15.7940   -7.0750 N   0  0  0  0  0  0  0  0  0  0  0  0
   26.9780   17.0740   -7.3590 C   0  0  0  0  0  0  0  0  0  0  0  0
   27.7610   17.9050   -8.1530 C   0  0  0  0  0  0  0  0  0  0  0  0
   27.2940   19.1630   -8.5120 C   0  0  0  0  0  0  0  0  0  0  0  0
   26.0450   19.5920   -8.0770 N   0  0  0  0  0  0  0  0  0  0  0  0
   25.2630   18.7610   -7.2840 C   0  0  0  0  0  0  0  0  0  0  0  0
   25.7300   17.5020   -6.9240 C   0  0  0  0  0  0  0  0  0  0  0  0
   25.1190    9.5750   -6.9080 C   0  0  1  0  0  0  0  0  0  0  0  0
   29.1170   17.4410   -8.6240 C   0  0  1  0  0  0  0  0  0  0  0  0
   25.2131   14.3252   -5.9885 H   0  0  0  0  0  0  0  0  0  0  0  0
   28.2973   14.6252   -8.9827 H   0  0  0  0  0  0  0  0  0  0  0  0
   24.6320   10.9871   -9.5478 H   0  0  0  0  0  0  0  0  0  0  0  0
   27.8409   10.1336   -8.9756 H   0  0  0  0  0  0  0  0  0  0  0  0
   27.5364   10.4466   -7.2065 H   0  0  0  0  0  0  0  0  0  0  0  0
   29.0236    8.5290   -7.6718 H   0  0  0  0  0  0  0  0  0  0  0  0
   27.5338    8.1439   -6.7263 H   0  0  0  0  0  0  0  0  0  0  0  0
   25.8507    6.4147   -9.2830 H   0  0  0  0  0  0  0  0  0  0  0  0
   25.8182    7.0368   -7.6051 H   0  0  0  0  0  0  0  0  0  0  0  0
   24.3638    8.3717   -9.0770 H   0  0  0  0  0  0  0  0  0  0  0  0
   25.7970    8.7067  -10.1488 H   0  0  0  0  0  0  0  0  0  0  0  0
   28.2501   15.7163   -6.5214 H   0  0  0  0  0  0  0  0  0  0  0  0
   27.9127   19.8202   -9.1408 H   0  0  0  0  0  0  0  0  0  0  0  0
   24.2742   19.0994   -6.9410 H   0  0  0  0  0  0  0  0  0  0  0  0
   25.1115   16.8449   -6.2949 H   0  0  0  0  0  0  0  0  0  0  0  0
   25.8601    9.7350   -6.1110 H   0  0  0  0  0  0  0  0  0  0  0  0
   24.3152   10.3203   -6.8162 H   0  0  0  0  0  0  0  0  0  0  0  0
   24.6943    8.5644   -6.8162 H   0  0  0  0  0  0  0  0  0  0  0  0
   29.7529   17.2234   -7.7532 H   0  0  0  0  0  0  0  0  0  0  0  0
   29.0026   16.5309   -9.2311 H   0  0  0  0  0  0  0  0  0  0  0  0
   29.5842   18.2304   -9.2311 H   0  0  0  0  0  0  0  0  0  0  0  0
  1  5  2  0
  1  2  1  0
  2  3  2  0
  3  4  1  0
  3  7  1  0
  4  6  2  0
  5  6  1  0
  5 14  1  0
  8  7  1  6
  8 13  1  0
  8  9  1  0
  8 21  1  0
  9 10  1  0
 10 11  1  0
 11 12  1  0
 12 13  1  0
 14 15  1  0
 15 16  2  0
 15 20  1  0
 16 22  1  0
 16 17  1  0
 17 18  2  0
 18 19  1  0
 19 20  2  0
  1 23  1  0
  6 24  1  0
  7 25  1  0
  9 26  1  6
  9 27  1  0
 10 28  1  1
 10 29  1  0
 12 30  1  6
 12 31  1  0
 13 32  1  6
 13 33  1  0
 14 34  1  0
 17 35  1  0
 19 36  1  0
 20 37  1  0
 21 38  1  1
 21 39  1  0
 21 40  1  0
 22 41  1  1
 22 42  1  0
 22 43  1  0
M  END
>  <Pose ID>  (204)
233

>  <Score>  (204)
-5.45219087600708

>  <smiles>  (204)
Cc1cnccc1Nc1cnc(NC2(C)CCOCC2)nc1

$$$$

     RDKit          3D

 20 21  0  0  0  0  0  0  0  0999 V2000
   28.2700    7.5930  -10.4720 C   0  0  0  0  0  0  0  0  0  0  0  0
   27.3480    7.0470   -9.5890 N   0  0  0  0  0  0  0  0  0  0  0  0
   26.3510    7.8460   -9.0410 C   0  0  0  0  0  0  0  0  0  0  0  0
   25.4730    7.2800   -8.1950 O   0  0  0  0  0  0  0  0  0  0  0  0
   28.1930    8.9380  -10.8140 C   0  0  0  0  0  0  0  0  0  0  0  0
   27.1730    9.7260  -10.2310 C   0  0  0  0  0  0  0  0  0  0  0  0
   26.1340    9.3490   -9.3890 C   0  0  0  0  0  0  0  0  0  0  0  0
   27.2710   11.0410  -10.6670 N   0  0  0  0  0  0  0  0  0  0  0  0
   26.3310   11.9810  -10.2620 C   0  0  0  0  0  0  0  0  0  0  0  0
   25.2910   11.6040   -9.4190 C   0  0  0  0  0  0  0  0  0  0  0  0
   25.1930   10.2880   -8.9830 C   0  0  0  0  0  0  0  0  0  0  0  0
   25.7170    7.7150   -6.8640 C   0  0  1  0  0  0  0  0  0  0  0  0
   29.0615    6.9610  -10.9010 H   0  0  0  0  0  0  0  0  0  0  0  0
   28.9093    9.3799  -11.5223 H   0  0  0  0  0  0  0  0  0  0  0  0
   26.4094   13.0223  -10.6078 H   0  0  0  0  0  0  0  0  0  0  0  0
   24.5464   12.3471   -9.0975 H   0  0  0  0  0  0  0  0  0  0  0  0
   24.3705    9.9894   -8.3164 H   0  0  0  0  0  0  0  0  0  0  0  0
   25.3048    6.9802   -6.1567 H   0  0  0  0  0  0  0  0  0  0  0  0
   26.8008    7.8113   -6.7026 H   0  0  0  0  0  0  0  0  0  0  0  0
   25.2342    8.6901   -6.7026 H   0  0  0  0  0  0  0  0  0  0  0  0
  1  5  2  0
  1  2  1  0
  2  3  2  0
  3  7  1  0
  3  4  1  0
  5  6  1  0
  6  8  2  0
  6  7  1  0
  7 11  2  0
  8  9  1  0
  9 10  2  0
 10 11  1  0
  4 12  1  0
  1 13  1  0
  5 14  1  0
  9 15  1  0
 10 16  1  0
 11 17  1  0
 12 18  1  1
 12 19  1  0
 12 20  1  0
M  END
>  <Pose ID>  (205)
130

>  <Score>  (205)
-5.439981460571289

>  <smiles>  (205)
COc1nccc2ncccc12

$$$$

     RDKit          3D

 43 45  0  0  0  0  0  0  0  0999 V2000
   25.8650   13.8870   -7.8750 C   0  0  0  0  0  0  0  0  0  0  0  0
   25.5230   12.6840   -8.4740 N   0  0  0  0  0  0  0  0  0  0  0  0
   26.4280   12.0430   -9.3080 C   0  0  0  0  0  0  0  0  0  0  0  0
   27.6770   12.6100   -9.5440 N   0  0  0  0  0  0  0  0  0  0  0  0
   27.1100   14.4530   -8.1080 C   0  0  0  0  0  0  0  0  0  0  0  0
   28.0170   13.8150   -8.9450 C   0  0  0  0  0  0  0  0  0  0  0  0
   25.8670   10.8790   -9.7760 N   0  0  0  0  0  0  0  0  0  0  0  0
   25.9700    9.6280   -9.0740 C   0  0  2  0  0  0  0  0  0  0  0  0
   27.3700    9.5670   -8.3770 C   0  0  1  0  0  0  0  0  0  0  0  0
   27.6820    8.2260   -7.8250 C   0  0  1  0  0  0  0  0  0  0  0  0
   27.5290    7.2080   -8.8370 O   0  0  0  0  0  0  0  0  0  0  0  0
   26.1440    7.1300   -9.2170 C   0  0  1  0  0  0  0  0  0  0  0  0
   25.7670    8.4080   -9.9290 C   0  0  1  0  0  0  0  0  0  0  0  0
   27.6740   15.6150   -7.6330 N   0  0  0  0  0  0  0  0  0  0  0  0
   27.4960   16.9040   -8.0710 C   0  0  0  0  0  0  0  0  0  0  0  0
   28.5570   17.6200   -8.6140 C   0  0  0  0  0  0  0  0  0  0  0  0
   28.3400   18.8870   -9.1400 C   0  0  0  0  0  0  0  0  0  0  0  0
   27.0660   19.4400   -9.1220 N   0  0  0  0  0  0  0  0  0  0  0  0
   26.0060   18.7250   -8.5790 C   0  0  0  0  0  0  0  0  0  0  0  0
   26.2210   17.4560   -8.0520 C   0  0  0  0  0  0  0  0  0  0  0  0
   24.8830    9.6190   -7.9600 C   0  0  1  0  0  0  0  0  0  0  0  0
   29.3700   14.4300   -9.2010 C   0  0  1  0  0  0  0  0  0  0  0  0
   25.1472   14.3939   -7.2133 H   0  0  0  0  0  0  0  0  0  0  0  0
   25.3510   10.9036  -10.6671 H   0  0  0  0  0  0  0  0  0  0  0  0
   28.1415    9.8308   -9.1154 H   0  0  0  0  0  0  0  0  0  0  0  0
   27.3506   10.2743   -7.5348 H   0  0  0  0  0  0  0  0  0  0  0  0
   28.7196    8.2186   -7.4597 H   0  0  0  0  0  0  0  0  0  0  0  0
   26.9851    8.0124   -7.0012 H   0  0  0  0  0  0  0  0  0  0  0  0
   25.9918    6.2726   -9.8891 H   0  0  0  0  0  0  0  0  0  0  0  0
   25.5160    6.9982   -8.3236 H   0  0  0  0  0  0  0  0  0  0  0  0
   24.7067    8.3516  -10.2162 H   0  0  0  0  0  0  0  0  0  0  0  0
   26.4210    8.5048  -10.8081 H   0  0  0  0  0  0  0  0  0  0  0  0
   28.3195   15.5019   -6.8383 H   0  0  0  0  0  0  0  0  0  0  0  0
   29.5667   17.1837   -8.6270 H   0  0  0  0  0  0  0  0  0  0  0  0
   29.1784   19.4534   -9.5715 H   0  0  0  0  0  0  0  0  0  0  0  0
   24.9968   19.1624   -8.5658 H   0  0  0  0  0  0  0  0  0  0  0  0
   25.3824   16.8898   -7.6205 H   0  0  0  0  0  0  0  0  0  0  0  0
   25.3692    9.6230   -6.9733 H   0  0  0  0  0  0  0  0  0  0  0  0
   24.2484   10.5119   -8.0597 H   0  0  0  0  0  0  0  0  0  0  0  0
   24.2632    8.7157   -8.0597 H   0  0  0  0  0  0  0  0  0  0  0  0
   29.8592   14.6524   -8.2412 H   0  0  0  0  0  0  0  0  0  0  0  0
   29.9905   13.7255   -9.7743 H   0  0  0  0  0  0  0  0  0  0  0  0
   29.2472   15.3607   -9.7743 H   0  0  0  0  0  0  0  0  0  0  0  0
  1  2  2  0
  1  5  1  0
  2  3  1  0
  3  7  1  0
  3  4  2  0
  4  6  1  0
  5  6  2  0
  5 14  1  0
  6 22  1  0
  8  7  1  6
  8 13  1  0
  8  9  1  0
  8 21  1  0
  9 10  1  0
 10 11  1  0
 11 12  1  0
 12 13  1  0
 14 15  1  0
 15 16  2  0
 15 20  1  0
 16 17  1  0
 17 18  2  0
 18 19  1  0
 19 20  2  0
  1 23  1  0
  7 24  1  0
  9 25  1  6
  9 26  1  0
 10 27  1  1
 10 28  1  0
 12 29  1  6
 12 30  1  0
 13 31  1  6
 13 32  1  0
 14 33  1  0
 16 34  1  0
 17 35  1  0
 19 36  1  0
 20 37  1  0
 21 38  1  1
 21 39  1  0
 21 40  1  0
 22 41  1  1
 22 42  1  0
 22 43  1  0
M  END
>  <Pose ID>  (206)
237

>  <Score>  (206)
-5.425942420959473

>  <smiles>  (206)
Cc1nc(NC2(C)CCOCC2)ncc1Nc1ccncc1

$$$$

     RDKit          3D

 26 28  0  0  0  0  0  0  0  0999 V2000
   28.1070    8.0160  -10.3790 C   0  0  0  0  0  0  0  0  0  0  0  0
   27.4720    7.0430   -9.6170 N   0  0  0  0  0  0  0  0  0  0  0  0
   26.2320    7.3050   -9.0480 C   0  0  0  0  0  0  0  0  0  0  0  0
   25.6260    8.5400   -9.2420 N   0  0  0  0  0  0  0  0  0  0  0  0
   26.2580    9.5120  -10.0060 C   0  0  0  0  0  0  0  0  0  0  0  0
   27.5000    9.2500  -10.5740 C   0  0  0  0  0  0  0  0  0  0  0  0
   25.8790   10.7610  -10.3310 N   0  0  0  0  0  0  0  0  0  0  0  0
   26.7450   11.2730  -11.0280 N   0  0  0  0  0  0  0  0  0  0  0  0
   27.7420   10.4540  -11.2350 C   0  0  0  0  0  0  0  0  0  0  0  0
   28.9470   10.5400  -11.9540 C   0  0  0  0  0  0  0  0  0  0  0  0
   29.2300   11.7520  -12.6690 C   0  0  0  0  0  0  0  0  0  0  0  0
   30.3170   11.7040  -13.2540 C   0  0  0  0  0  0  0  0  0  0  0  0
   29.9240    9.6500  -12.1900 O   0  0  0  0  0  0  0  0  0  0  0  0
   30.8040   10.2390  -12.9640 C   0  0  0  0  0  0  0  0  0  0  0  0
   28.3060   12.9450  -12.7020 C   0  0  1  0  0  0  0  0  0  0  0  0
   27.1690   12.6420  -13.6630 C   0  0  1  0  0  0  0  0  0  0  0  0
   29.0899    7.8091  -10.8276 H   0  0  0  0  0  0  0  0  0  0  0  0
   25.7301    6.5348   -8.4440 H   0  0  0  0  0  0  0  0  0  0  0  0
   24.7073    8.7347   -8.8188 H   0  0  0  0  0  0  0  0  0  0  0  0
   30.8194   12.4920  -13.8342 H   0  0  0  0  0  0  0  0  0  0  0  0
   31.7291    9.7830  -13.3464 H   0  0  0  0  0  0  0  0  0  0  0  0
   27.9027   13.1309  -11.6956 H   0  0  0  0  0  0  0  0  0  0  0  0
   28.8539   13.8394  -13.0335 H   0  0  0  0  0  0  0  0  0  0  0  0
   26.2607   12.3999  -13.0917 H   0  0  0  0  0  0  0  0  0  0  0  0
   26.9803   13.5212  -14.2966 H   0  0  0  0  0  0  0  0  0  0  0  0
   27.4428   11.7855  -14.2966 H   0  0  0  0  0  0  0  0  0  0  0  0
  1  6  2  0
  1  2  1  0
  2  3  2  0
  3  4  1  0
  4  5  1  0
  5  6  1  0
  5  7  2  0
  6  9  1  0
  7  8  1  0
  8  9  2  0
  9 10  1  0
 10 11  2  0
 10 13  1  0
 11 12  1  0
 11 15  1  0
 12 14  2  0
 13 14  1  0
 15 16  1  0
  1 17  1  0
  3 18  1  0
  4 19  1  0
 12 20  1  0
 14 21  1  0
 15 22  1  1
 15 23  1  0
 16 24  1  1
 16 25  1  0
 16 26  1  0
M  END
>  <Pose ID>  (207)
24

>  <Score>  (207)
-5.413959503173828

>  <smiles>  (207)
CCc1ccoc1-c1nnc2[nH]cncc1-2

$$$$

     RDKit          3D

 40 42  0  0  0  0  0  0  0  0999 V2000
   26.5200   14.3870   -7.9060 C   0  0  0  0  0  0  0  0  0  0  0  0
   25.9490   13.1790   -8.2780 N   0  0  0  0  0  0  0  0  0  0  0  0
   26.4960   12.4470   -9.3240 C   0  0  0  0  0  0  0  0  0  0  0  0
   27.6150   12.9270   -9.9960 N   0  0  0  0  0  0  0  0  0  0  0  0
   27.6380   14.8660   -8.5730 C   0  0  0  0  0  0  0  0  0  0  0  0
   28.1850   14.1360   -9.6210 C   0  0  0  0  0  0  0  0  0  0  0  0
   25.7630   11.2980   -9.5020 N   0  0  0  0  0  0  0  0  0  0  0  0
   26.0460   10.0770   -8.7970 C   0  0  2  0  0  0  0  0  0  0  0  0
   27.5940    9.9670   -8.5990 C   0  0  1  0  0  0  0  0  0  0  0  0
   28.0180    8.6350   -8.0970 C   0  0  1  0  0  0  0  0  0  0  0  0
   27.4950    7.5820   -8.9350 O   0  0  0  0  0  0  0  0  0  0  0  0
   26.0610    7.5690   -8.8270 C   0  0  1  0  0  0  0  0  0  0  0  0
   25.5190    8.8330   -9.4550 C   0  0  1  0  0  0  0  0  0  0  0  0
   28.3730   16.0130   -8.3890 N   0  0  0  0  0  0  0  0  0  0  0  0
   27.9570   17.3300   -8.8360 C   0  0  0  0  0  0  0  0  0  0  0  0
   28.8800   17.9330   -9.6830 C   0  0  0  0  0  0  0  0  0  0  0  0
   28.6200   19.1930  -10.2090 C   0  0  0  0  0  0  0  0  0  0  0  0
   27.4370   19.8500   -9.8880 N   0  0  0  0  0  0  0  0  0  0  0  0
   26.5150   19.2460   -9.0410 C   0  0  0  0  0  0  0  0  0  0  0  0
   26.7880   17.9900   -8.4990 C   0  0  0  0  0  0  0  0  0  0  0  0
   29.6220   19.8470  -11.1280 C   0  0  1  0  0  0  0  0  0  0  0  0
   26.0847   14.9673   -7.0791 H   0  0  0  0  0  0  0  0  0  0  0  0
   29.0694   14.5159  -10.1534 H   0  0  0  0  0  0  0  0  0  0  0  0
   24.9778   11.3121  -10.1685 H   0  0  0  0  0  0  0  0  0  0  0  0
   25.5156   10.1359   -7.8351 H   0  0  0  0  0  0  0  0  0  0  0  0
   28.0857   10.1508   -9.5657 H   0  0  0  0  0  0  0  0  0  0  0  0
   27.8846   10.7126   -7.8443 H   0  0  0  0  0  0  0  0  0  0  0  0
   29.1168    8.5829   -8.0957 H   0  0  0  0  0  0  0  0  0  0  0  0
   27.6276    8.5014   -7.0773 H   0  0  0  0  0  0  0  0  0  0  0  0
   25.6576    6.6913   -9.3531 H   0  0  0  0  0  0  0  0  0  0  0  0
   25.7641    7.5175   -7.7691 H   0  0  0  0  0  0  0  0  0  0  0  0
   24.4224    8.8267   -9.3694 H   0  0  0  0  0  0  0  0  0  0  0  0
   25.8438    8.8487  -10.5058 H   0  0  0  0  0  0  0  0  0  0  0  0
   29.2773   15.9328   -7.9025 H   0  0  0  0  0  0  0  0  0  0  0  0
   29.8156   17.4131   -9.9367 H   0  0  0  0  0  0  0  0  0  0  0  0
   25.5718   19.7576   -8.7986 H   0  0  0  0  0  0  0  0  0  0  0  0
   26.0742   17.5241   -7.8037 H   0  0  0  0  0  0  0  0  0  0  0  0
   30.3945   20.3512  -10.5288 H   0  0  0  0  0  0  0  0  0  0  0  0
   30.0919   19.0812  -11.7626 H   0  0  0  0  0  0  0  0  0  0  0  0
   29.1101   20.5854  -11.7626 H   0  0  0  0  0  0  0  0  0  0  0  0
  1  5  2  0
  1  2  1  0
  2  3  2  0
  3  4  1  0
  3  7  1  0
  4  6  2  0
  5  6  1  0
  5 14  1  0
  7  8  1  0
  8 13  1  0
  8  9  1  0
  9 10  1  0
 10 11  1  0
 11 12  1  0
 12 13  1  0
 14 15  1  0
 15 16  2  0
 15 20  1  0
 16 17  1  0
 17 21  1  0
 17 18  2  0
 18 19  1  0
 19 20  2  0
  1 22  1  0
  6 23  1  0
  7 24  1  0
  8 25  1  1
  9 26  1  6
  9 27  1  0
 10 28  1  1
 10 29  1  0
 12 30  1  6
 12 31  1  0
 13 32  1  6
 13 33  1  0
 14 34  1  0
 16 35  1  0
 19 36  1  0
 20 37  1  0
 21 38  1  1
 21 39  1  0
 21 40  1  0
M  END
>  <Pose ID>  (208)
220

>  <Score>  (208)
-5.4064412117004395

>  <smiles>  (208)
Cc1cc(Nc2cnc(NC3CCOCC3)nc2)ccn1

$$$$

     RDKit          3D

 20 22  0  0  0  0  0  0  0  0999 V2000
   28.1100    8.0270  -10.3640 C   0  0  0  0  0  0  0  0  0  0  0  0
   27.4780    7.0500   -9.6050 N   0  0  0  0  0  0  0  0  0  0  0  0
   26.2650    7.3250   -8.9870 C   0  0  0  0  0  0  0  0  0  0  0  0
   25.6810    8.5780   -9.1290 N   0  0  0  0  0  0  0  0  0  0  0  0
   26.3100    9.5540   -9.8900 C   0  0  0  0  0  0  0  0  0  0  0  0
   27.5250    9.2790  -10.5070 C   0  0  0  0  0  0  0  0  0  0  0  0
   25.9490   10.8200  -10.1710 N   0  0  0  0  0  0  0  0  0  0  0  0
   26.8030   11.3290  -10.8850 N   0  0  0  0  0  0  0  0  0  0  0  0
   27.7730   10.4950  -11.1460 C   0  0  0  0  0  0  0  0  0  0  0  0
   28.9550   10.5710  -11.9030 C   0  0  0  0  0  0  0  0  0  0  0  0
   29.2410   11.7950  -12.5970 C   0  0  0  0  0  0  0  0  0  0  0  0
   30.3070   11.7380  -13.2200 C   0  0  0  0  0  0  0  0  0  0  0  0
   29.9020    9.6660  -12.1950 O   0  0  0  0  0  0  0  0  0  0  0  0
   30.7690   10.2550  -12.9840 C   0  0  0  0  0  0  0  0  0  0  0  0
   29.0721    7.8096  -10.8510 H   0  0  0  0  0  0  0  0  0  0  0  0
   25.7665    6.5509   -8.3851 H   0  0  0  0  0  0  0  0  0  0  0  0
   24.7819    8.7825   -8.6699 H   0  0  0  0  0  0  0  0  0  0  0  0
   28.5879   12.6799  -12.5766 H   0  0  0  0  0  0  0  0  0  0  0  0
   30.8080   12.5294  -13.7967 H   0  0  0  0  0  0  0  0  0  0  0  0
   31.6696    9.7882  -13.4095 H   0  0  0  0  0  0  0  0  0  0  0  0
  1  6  2  0
  1  2  1  0
  2  3  2  0
  3  4  1  0
  4  5  1  0
  5  6  1  0
  5  7  2  0
  6  9  1  0
  7  8  1  0
  8  9  2  0
  9 10  1  0
 10 11  2  0
 10 13  1  0
 11 12  1  0
 12 14  2  0
 13 14  1  0
  1 15  1  0
  3 16  1  0
  4 17  1  0
 11 18  1  0
 12 19  1  0
 14 20  1  0
M  END
>  <Pose ID>  (209)
20

>  <Score>  (209)
-5.387741565704346

>  <smiles>  (209)
c1coc(-c2nnc3[nH]cncc2-3)c1

$$$$

     RDKit          3D

 21 22  0  0  0  0  0  0  0  0999 V2000
   28.0660    8.0800  -10.5040 C   0  0  0  0  0  0  0  0  0  0  0  0
   27.4450    7.3010   -9.6440 N   0  0  0  0  0  0  0  0  0  0  0  0
   26.2830    7.7980   -9.0650 C   0  0  0  0  0  0  0  0  0  0  0  0
   25.6040    7.0420   -8.1950 O   0  0  0  0  0  0  0  0  0  0  0  0
   27.6330    9.3490  -10.8700 C   0  0  0  0  0  0  0  0  0  0  0  0
   26.5250    9.8370  -10.3220 C   0  0  0  0  0  0  0  0  0  0  0  0
   25.8230    9.0650   -9.4030 C   0  0  0  0  0  0  0  0  0  0  0  0
   28.3620   10.0930  -11.7900 C   0  0  0  0  0  0  0  0  0  0  0  0
   29.5240    9.5690  -12.3430 C   0  0  0  0  0  0  0  0  0  0  0  0
   29.9580    8.3020  -11.9770 C   0  0  0  0  0  0  0  0  0  0  0  0
   29.2680    7.5580  -11.0390 C   0  0  0  0  0  0  0  0  0  0  0  0
   25.7710    7.5300   -6.8620 C   0  0  1  0  0  0  0  0  0  0  0  0
   26.1670   10.8413  -10.5926 H   0  0  0  0  0  0  0  0  0  0  0  0
   24.9037    9.4571   -8.9436 H   0  0  0  0  0  0  0  0  0  0  0  0
   28.0190   11.0970  -12.0805 H   0  0  0  0  0  0  0  0  0  0  0  0
   30.1004   10.1584  -13.0712 H   0  0  0  0  0  0  0  0  0  0  0  0
   30.8641    7.8845  -12.4403 H   0  0  0  0  0  0  0  0  0  0  0  0
   29.6461    6.5775  -10.7139 H   0  0  0  0  0  0  0  0  0  0  0  0
   25.5007    6.7401   -6.1458 H   0  0  0  0  0  0  0  0  0  0  0  0
   26.8202    7.8219   -6.7072 H   0  0  0  0  0  0  0  0  0  0  0  0
   25.1207    8.4035   -6.7072 H   0  0  0  0  0  0  0  0  0  0  0  0
  1 11  1  0
  1  5  1  0
  1  2  2  0
  2  3  1  0
  3  7  2  0
  3  4  1  0
  5  8  1  0
  5  6  2  0
  6  7  1  0
  8  9  2  0
  9 10  1  0
 10 11  2  0
  4 12  1  0
  6 13  1  0
  7 14  1  0
  8 15  1  0
  9 16  1  0
 10 17  1  0
 11 18  1  0
 12 19  1  1
 12 20  1  0
 12 21  1  0
M  END
>  <Pose ID>  (210)
131

>  <Score>  (210)
-5.386260986328125

>  <smiles>  (210)
COc1ccc2ccccc2n1

$$$$

     RDKit          3D

 19 20  0  0  0  0  0  0  0  0999 V2000
   28.1860    7.6900  -10.4100 C   0  0  0  0  0  0  0  0  0  0  0  0
   27.2950    7.0580   -9.5550 N   0  0  0  0  0  0  0  0  0  0  0  0
   26.2630    7.7800   -8.9640 C   0  0  0  0  0  0  0  0  0  0  0  0
   25.4210    7.2570   -8.1550 O   0  0  0  0  0  0  0  0  0  0  0  0
   28.0470    9.0470  -10.6780 N   0  0  0  0  0  0  0  0  0  0  0  0
   27.0290    9.7640  -10.0790 C   0  0  0  0  0  0  0  0  0  0  0  0
   25.9970    9.4000   -9.2230 C   0  0  0  0  0  0  0  0  0  0  0  0
   27.1140   11.0700  -10.5480 N   0  0  0  0  0  0  0  0  0  0  0  0
   26.1660   12.0110  -10.1630 C   0  0  0  0  0  0  0  0  0  0  0  0
   25.1330   11.6460   -9.3070 C   0  0  0  0  0  0  0  0  0  0  0  0
   25.0480   10.3400   -8.8380 C   0  0  0  0  0  0  0  0  0  0  0  0
   25.6940    7.5830   -6.7920 C   0  0  1  0  0  0  0  0  0  0  0  0
   29.0020    7.1178  -10.8756 H   0  0  0  0  0  0  0  0  0  0  0  0
   26.2331   13.0439  -10.5354 H   0  0  0  0  0  0  0  0  0  0  0  0
   24.3832   12.3904   -9.0009 H   0  0  0  0  0  0  0  0  0  0  0  0
   24.2298   10.0505   -8.1622 H   0  0  0  0  0  0  0  0  0  0  0  0
   25.1285    6.9077   -6.1331 H   0  0  0  0  0  0  0  0  0  0  0  0
   26.7705    7.4696   -6.5964 H   0  0  0  0  0  0  0  0  0  0  0  0
   25.3933    8.6229   -6.5964 H   0  0  0  0  0  0  0  0  0  0  0  0
  1  5  2  0
  1  2  1  0
  2  3  2  0
  3  7  1  0
  3  4  1  0
  5  6  1  0
  6  8  2  0
  6  7  1  0
  7 11  2  0
  8  9  1  0
  9 10  2  0
 10 11  1  0
  4 12  1  0
  1 13  1  0
  9 14  1  0
 10 15  1  0
 11 16  1  0
 12 17  1  1
 12 18  1  0
 12 19  1  0
M  END
>  <Pose ID>  (211)
152

>  <Score>  (211)
-5.366677284240723

>  <smiles>  (211)
COc1ncnc2ncccc12

$$$$

     RDKit          3D

 46 48  0  0  0  0  0  0  0  0999 V2000
   26.6370   13.7350   -6.7570 C   0  0  0  0  0  0  0  0  0  0  0  0
   25.9990   12.5370   -7.0280 N   0  0  0  0  0  0  0  0  0  0  0  0
   26.0800   11.9790   -8.2960 C   0  0  0  0  0  0  0  0  0  0  0  0
   26.8020   12.6270   -9.2940 N   0  0  0  0  0  0  0  0  0  0  0  0
   27.3600   14.3830   -7.7490 C   0  0  0  0  0  0  0  0  0  0  0  0
   27.4400   13.8280   -9.0200 C   0  0  0  0  0  0  0  0  0  0  0  0
   25.3730   10.8000   -8.3190 N   0  0  0  0  0  0  0  0  0  0  0  0
   25.9590    9.5350   -7.9710 C   0  0  2  0  0  0  0  0  0  0  0  0
   27.4510    9.5330   -8.4450 C   0  0  1  0  0  0  0  0  0  0  0  0
   28.0830    8.1940   -8.3520 C   0  0  1  0  0  0  0  0  0  0  0  0
   27.2880    7.2040   -9.0410 O   0  0  0  0  0  0  0  0  0  0  0  0
   26.0310    7.0580   -8.3580 C   0  0  1  0  0  0  0  0  0  0  0  0
   25.2410    8.3340   -8.5230 C   0  0  1  0  0  0  0  0  0  0  0  0
   28.0720   15.5590   -7.7230 N   0  0  0  0  0  0  0  0  0  0  0  0
   27.5770   16.8220   -7.8750 C   0  0  0  0  0  0  0  0  0  0  0  0
   27.9900   17.6670   -8.8990 C   0  0  0  0  0  0  0  0  0  0  0  0
   27.4430   18.9390   -9.0140 C   0  0  0  0  0  0  0  0  0  0  0  0
   26.4830   19.3670   -8.1060 C   0  0  0  0  0  0  0  0  0  0  0  0
   26.0700   18.5230   -7.0820 C   0  0  0  0  0  0  0  0  0  0  0  0
   26.5970   17.2400   -6.9860 C   0  0  0  0  0  0  0  0  0  0  0  0
   25.1750   18.7180   -6.0650 N   0  0  0  0  0  0  0  0  0  0  0  0
   25.5140   18.3010   -4.6980 C   0  0  1  0  0  0  0  0  0  0  0  0
   23.8460   19.3640   -6.3810 C   0  0  1  0  0  0  0  0  0  0  0  0
   26.5708   14.1755   -5.7512 H   0  0  0  0  0  0  0  0  0  0  0  0
   28.0093   14.3409   -9.8092 H   0  0  0  0  0  0  0  0  0  0  0  0
   24.3816   10.8246   -8.5974 H   0  0  0  0  0  0  0  0  0  0  0  0
   25.8776    9.4384   -6.8783 H   0  0  0  0  0  0  0  0  0  0  0  0
   27.4872    9.8665   -9.4926 H   0  0  0  0  0  0  0  0  0  0  0  0
   28.0098   10.2093   -7.7814 H   0  0  0  0  0  0  0  0  0  0  0  0
   29.0833    8.2346   -8.8079 H   0  0  0  0  0  0  0  0  0  0  0  0
   28.1575    7.9115   -7.2915 H   0  0  0  0  0  0  0  0  0  0  0  0
   25.4700    6.2165   -8.7905 H   0  0  0  0  0  0  0  0  0  0  0  0
   26.2049    6.8596   -7.2901 H   0  0  0  0  0  0  0  0  0  0  0  0
   24.2813    8.2247   -7.9966 H   0  0  0  0  0  0  0  0  0  0  0  0
   25.0963    8.4990   -9.6009 H   0  0  0  0  0  0  0  0  0  0  0  0
   29.0878   15.4783   -7.5727 H   0  0  0  0  0  0  0  0  0  0  0  0
   28.7501   17.3283   -9.6184 H   0  0  0  0  0  0  0  0  0  0  0  0
   27.7702   19.6072   -9.8242 H   0  0  0  0  0  0  0  0  0  0  0  0
   26.0496   20.3739   -8.1974 H   0  0  0  0  0  0  0  0  0  0  0  0
   26.2365   16.5553   -6.2042 H   0  0  0  0  0  0  0  0  0  0  0  0
   24.9898   18.9458   -3.9773 H   0  0  0  0  0  0  0  0  0  0  0  0
   25.2061   17.2559   -4.5465 H   0  0  0  0  0  0  0  0  0  0  0  0
   26.6000   18.3890   -4.5465 H   0  0  0  0  0  0  0  0  0  0  0  0
   23.3285   19.6156   -5.4435 H   0  0  0  0  0  0  0  0  0  0  0  0
   24.0137   20.2811   -6.9648 H   0  0  0  0  0  0  0  0  0  0  0  0
   23.2284   18.6656   -6.9648 H   0  0  0  0  0  0  0  0  0  0  0  0
  1  5  2  0
  1  2  1  0
  2  3  2  0
  3  4  1  0
  3  7  1  0
  4  6  2  0
  5  6  1  0
  5 14  1  0
  7  8  1  0
  8 13  1  0
  8  9  1  0
  9 10  1  0
 10 11  1  0
 11 12  1  0
 12 13  1  0
 14 15  1  0
 15 16  2  0
 15 20  1  0
 16 17  1  0
 17 18  2  0
 18 19  1  0
 19 20  2  0
 19 21  1  0
 21 23  1  0
 21 22  1  0
  1 24  1  0
  6 25  1  0
  7 26  1  0
  8 27  1  1
  9 28  1  6
  9 29  1  0
 10 30  1  6
 10 31  1  0
 12 32  1  6
 12 33  1  0
 13 34  1  1
 13 35  1  0
 14 36  1  0
 16 37  1  0
 17 38  1  0
 18 39  1  0
 20 40  1  0
 22 41  1  1
 22 42  1  0
 22 43  1  0
 23 44  1  1
 23 45  1  0
 23 46  1  0
M  END
>  <Pose ID>  (212)
187

>  <Score>  (212)
-5.3646392822265625

>  <smiles>  (212)
CN(C)c1cccc(Nc2cnc(NC3CCOCC3)nc2)c1

$$$$

     RDKit          3D

 16 17  0  0  0  0  0  0  0  0999 V2000
   28.2060    7.5460  -10.5880 C   0  0  0  0  0  0  0  0  0  0  0  0
   27.3950    7.0440   -9.5780 N   0  0  0  0  0  0  0  0  0  0  0  0
   26.4270    7.8540   -8.9960 C   0  0  0  0  0  0  0  0  0  0  0  0
   26.2710    9.1680   -9.4230 C   0  0  0  0  0  0  0  0  0  0  0  0
   27.0820    9.6710  -10.4320 C   0  0  0  0  0  0  0  0  0  0  0  0
   28.0750    8.8920  -11.0010 C   0  0  0  0  0  0  0  0  0  0  0  0
   26.7110   10.9370  -10.6870 N   0  0  0  0  0  0  0  0  0  0  0  0
   25.6780   11.1960   -9.8300 O   0  0  0  0  0  0  0  0  0  0  0  0
   25.4160   10.1750   -9.1090 C   0  0  0  0  0  0  0  0  0  0  0  0
   29.0020    9.4700  -12.0420 C   0  0  1  0  0  0  0  0  0  0  0  0
   28.9518    6.8949  -11.0675 H   0  0  0  0  0  0  0  0  0  0  0  0
   25.7841    7.4554   -8.1974 H   0  0  0  0  0  0  0  0  0  0  0  0
   24.6208   10.1199   -8.3510 H   0  0  0  0  0  0  0  0  0  0  0  0
   29.8343    9.9890  -11.5441 H   0  0  0  0  0  0  0  0  0  0  0  0
   29.3989    8.6590  -12.6703 H   0  0  0  0  0  0  0  0  0  0  0  0
   28.4485   10.1833  -12.6703 H   0  0  0  0  0  0  0  0  0  0  0  0
  1  6  2  0
  1  2  1  0
  2  3  2  0
  3  4  1  0
  4  5  1  0
  4  9  2  0
  5  6  1  0
  5  7  2  0
  6 10  1  0
  7  8  1  0
  8  9  1  0
  1 11  1  0
  3 12  1  0
  9 13  1  0
 10 14  1  1
 10 15  1  0
 10 16  1  0
M  END
>  <Pose ID>  (213)
13

>  <Score>  (213)
-5.356674671173096

>  <smiles>  (213)
Cc1cncc2conc12

$$$$

     RDKit          3D

 23 25  0  0  0  0  0  0  0  0999 V2000
   28.1290    7.5520  -10.5270 C   0  0  0  0  0  0  0  0  0  0  0  0
   27.3460    7.0420   -9.4980 N   0  0  0  0  0  0  0  0  0  0  0  0
   26.3620    7.8270   -8.9170 C   0  0  0  0  0  0  0  0  0  0  0  0
   26.1610    9.1290   -9.3630 N   0  0  0  0  0  0  0  0  0  0  0  0
   26.9430    9.6400  -10.3930 C   0  0  0  0  0  0  0  0  0  0  0  0
   27.9080    8.8890  -10.9750 C   0  0  0  0  0  0  0  0  0  0  0  0
   26.9300   10.8500  -10.9830 N   0  0  0  0  0  0  0  0  0  0  0  0
   27.8390   10.8440  -11.8730 N   0  0  0  0  0  0  0  0  0  0  0  0
   28.4500    9.7040  -11.9100 C   0  0  0  0  0  0  0  0  0  0  0  0
   25.3440    9.8860   -8.5810 C   0  0  0  0  0  0  0  0  0  0  0  0
   25.3800    9.8660   -7.2990 C   0  0  0  0  0  0  0  0  0  0  0  0
   24.3960   10.7860   -9.0750 C   0  0  0  0  0  0  0  0  0  0  0  0
   23.7710   11.3150   -7.9100 C   0  0  0  0  0  0  0  0  0  0  0  0
   24.3920   10.7540   -6.8800 O   0  0  0  0  0  0  0  0  0  0  0  0
   25.5100    7.2710   -7.8020 C   0  0  1  0  0  0  0  0  0  0  0  0
   28.9103    6.9321  -10.9909 H   0  0  0  0  0  0  0  0  0  0  0  0
   29.2741    9.4406  -12.5893 H   0  0  0  0  0  0  0  0  0  0  0  0
   26.0516    9.2711   -6.6626 H   0  0  0  0  0  0  0  0  0  0  0  0
   24.1812   11.0304  -10.1258 H   0  0  0  0  0  0  0  0  0  0  0  0
   22.9440   12.0393   -7.8717 H   0  0  0  0  0  0  0  0  0  0  0  0
   25.9446    7.5546   -6.8321 H   0  0  0  0  0  0  0  0  0  0  0  0
   24.4914    7.6787   -7.8807 H   0  0  0  0  0  0  0  0  0  0  0  0
   25.4731    6.1744   -7.8807 H   0  0  0  0  0  0  0  0  0  0  0  0
  1  6  2  0
  1  2  1  0
  2  3  2  0
  3  4  1  0
  3 15  1  0
  4  5  1  0
  4 10  1  0
  5  7  2  0
  5  6  1  0
  6  9  1  0
  7  8  1  0
  8  9  2  0
 10 12  1  0
 10 11  2  0
 11 14  1  0
 12 13  2  0
 13 14  1  0
  1 16  1  0
  9 17  1  0
 11 18  1  0
 12 19  1  0
 13 20  1  0
 15 21  1  1
 15 22  1  0
 15 23  1  0
M  END
>  <Pose ID>  (214)
259

>  <Score>  (214)
-5.346747875213623

>  <smiles>  (214)
Cc1ncc2cnnc-2n1-c1ccoc1

$$$$

     RDKit          3D

 15 16  0  0  0  0  0  0  0  0999 V2000
   27.9690    7.9850  -10.4730 C   0  0  0  0  0  0  0  0  0  0  0  0
   27.4300    7.0420   -9.5860 N   0  0  0  0  0  0  0  0  0  0  0  0
   26.3100    7.3990   -8.8460 C   0  0  0  0  0  0  0  0  0  0  0  0
   25.7510    8.6610   -8.9980 N   0  0  0  0  0  0  0  0  0  0  0  0
   27.3240    9.2130  -10.5450 C   0  0  0  0  0  0  0  0  0  0  0  0
   26.3140    9.5640   -9.8900 C   0  0  0  0  0  0  0  0  0  0  0  0
   29.0840    7.7390  -11.2650 N   0  0  0  0  0  0  0  0  0  0  0  0
   29.5540    8.7220  -12.1290 C   0  0  0  0  0  0  0  0  0  0  0  0
   28.9080    9.9500  -12.2010 C   0  0  0  0  0  0  0  0  0  0  0  0
   27.7930   10.1970  -11.4090 C   0  0  0  0  0  0  0  0  0  0  0  0
   25.8659    6.6821   -8.1397 H   0  0  0  0  0  0  0  0  0  0  0  0
   25.8825   10.5675  -10.0195 H   0  0  0  0  0  0  0  0  0  0  0  0
   30.4371    8.5274  -12.7554 H   0  0  0  0  0  0  0  0  0  0  0  0
   29.2793   10.7271  -12.8852 H   0  0  0  0  0  0  0  0  0  0  0  0
   27.2820   11.1695  -11.4653 H   0  0  0  0  0  0  0  0  0  0  0  0
  1  7  1  0
  1  5  1  0
  1  2  2  0
  2  3  1  0
  3  4  2  0
  4  6  1  0
  5 10  1  0
  5  6  2  0
  7  8  2  0
  8  9  1  0
  9 10  2  0
  3 11  1  0
  6 12  1  0
  8 13  1  0
  9 14  1  0
 10 15  1  0
M  END
>  <Pose ID>  (215)
175

>  <Score>  (215)
-5.322380542755127

>  <smiles>  (215)
c1cnc2ncncc2c1

$$$$

     RDKit          3D

 22 23  0  0  0  0  0  0  0  0999 V2000
   27.7530    8.3620  -10.3460 C   0  0  0  0  0  0  0  0  0  0  0  0
   27.4740    7.1300   -9.7660 N   0  0  0  0  0  0  0  0  0  0  0  0
   26.5510    7.0430   -8.7310 C   0  0  0  0  0  0  0  0  0  0  0  0
   25.9110    8.1900   -8.2730 C   0  0  0  0  0  0  0  0  0  0  0  0
   26.1940    9.4200   -8.8500 C   0  0  0  0  0  0  0  0  0  0  0  0
   27.0850    9.5200   -9.8720 C   0  0  0  0  0  0  0  0  0  0  0  0
   28.6940    8.2040  -11.3360 N   0  0  0  0  0  0  0  0  0  0  0  0
   29.0740    9.4900  -12.0920 C   0  0  0  0  0  0  0  0  0  0  0  0
   30.4320    9.7380  -12.2460 N   0  0  0  0  0  0  0  0  0  0  0  0
   30.8600   10.8730  -12.9240 C   0  0  0  0  0  0  0  0  0  0  0  0
   29.9290   11.7620  -13.4470 N   0  0  0  0  0  0  0  0  0  0  0  0
   28.5690   11.5140  -13.2950 C   0  0  0  0  0  0  0  0  0  0  0  0
   28.1420   10.3780  -12.6170 C   0  0  0  0  0  0  0  0  0  0  0  0
   27.7350   12.3080  -13.7650 O   0  0  0  0  0  0  0  0  0  0  0  0
   26.3266    6.0678   -8.2742 H   0  0  0  0  0  0  0  0  0  0  0  0
   25.1805    8.1221   -7.4534 H   0  0  0  0  0  0  0  0  0  0  0  0
   25.6917   10.3244   -8.4762 H   0  0  0  0  0  0  0  0  0  0  0  0
   27.2878   10.4988  -10.3312 H   0  0  0  0  0  0  0  0  0  0  0  0
   29.1148    7.2900  -11.5562 H   0  0  0  0  0  0  0  0  0  0  0  0
   31.9357   11.0676  -13.0466 H   0  0  0  0  0  0  0  0  0  0  0  0
   30.2461   12.6047  -13.9473 H   0  0  0  0  0  0  0  0  0  0  0  0
   27.0665   10.1817  -12.4959 H   0  0  0  0  0  0  0  0  0  0  0  0
  1  7  1  0
  1  6  1  0
  1  2  2  0
  2  3  1  0
  3  4  2  0
  4  5  1  0
  5  6  2  0
  7  8  1  0
  8 13  2  0
  8  9  1  0
  9 10  2  0
 10 11  1  0
 11 12  1  0
 12 14  2  0
 12 13  1  0
  3 15  1  0
  4 16  1  0
  5 17  1  0
  6 18  1  0
  7 19  1  0
 10 20  1  0
 11 21  1  0
 13 22  1  0
M  END
>  <Pose ID>  (216)
56

>  <Score>  (216)
-5.320007801055908

>  <smiles>  (216)
O=c1cc(Nc2ccccn2)nc[nH]1

$$$$

     RDKit          3D

 24 25  0  0  0  0  0  0  0  0999 V2000
   27.8360    8.2400  -10.2860 C   0  0  0  0  0  0  0  0  0  0  0  0
   27.4570    7.0470   -9.6810 N   0  0  0  0  0  0  0  0  0  0  0  0
   26.4560    7.0470   -8.7160 C   0  0  0  0  0  0  0  0  0  0  0  0
   25.8320    8.2350   -8.3610 C   0  0  0  0  0  0  0  0  0  0  0  0
   26.2150    9.4290   -8.9640 C   0  0  0  0  0  0  0  0  0  0  0  0
   27.2370    9.4330   -9.9070 C   0  0  0  0  0  0  0  0  0  0  0  0
   28.8080    8.2370  -11.2580 N   0  0  0  0  0  0  0  0  0  0  0  0
   29.2050    9.4250  -11.9460 C   0  0  0  0  0  0  0  0  0  0  0  0
   30.5470    9.7750  -12.0320 N   0  0  0  0  0  0  0  0  0  0  0  0
   30.9210   10.9390  -12.6910 C   0  0  0  0  0  0  0  0  0  0  0  0
   29.9520   11.7560  -13.2630 C   0  0  0  0  0  0  0  0  0  0  0  0
   28.6090   11.4070  -13.1770 N   0  0  0  0  0  0  0  0  0  0  0  0
   28.2370   10.2400  -12.5170 C   0  0  0  0  0  0  0  0  0  0  0  0
   25.5210   10.7170   -8.5960 C   0  0  1  0  0  0  0  0  0  0  0  0
   26.1582    6.1045   -8.2333 H   0  0  0  0  0  0  0  0  0  0  0  0
   25.0348    8.2325   -7.6031 H   0  0  0  0  0  0  0  0  0  0  0  0
   27.5706   10.3818  -10.3525 H   0  0  0  0  0  0  0  0  0  0  0  0
   29.2665    7.3468  -11.4990 H   0  0  0  0  0  0  0  0  0  0  0  0
   31.9837   11.2146  -12.7604 H   0  0  0  0  0  0  0  0  0  0  0  0
   30.2481   12.6786  -13.7836 H   0  0  0  0  0  0  0  0  0  0  0  0
   27.1748    9.9628  -12.4476 H   0  0  0  0  0  0  0  0  0  0  0  0
   25.4723   10.8073   -7.5008 H   0  0  0  0  0  0  0  0  0  0  0  0
   26.0830   11.5674   -9.0094 H   0  0  0  0  0  0  0  0  0  0  0  0
   24.5017   10.7154   -9.0094 H   0  0  0  0  0  0  0  0  0  0  0  0
  1  7  1  0
  1  6  1  0
  1  2  2  0
  2  3  1  0
  3  4  2  0
  4  5  1  0
  5  6  2  0
  5 14  1  0
  7  8  1  0
  8 13  1  0
  8  9  2  0
  9 10  1  0
 10 11  2  0
 11 12  1  0
 12 13  2  0
  3 15  1  0
  4 16  1  0
  6 17  1  0
  7 18  1  0
 10 19  1  0
 11 20  1  0
 13 21  1  0
 14 22  1  1
 14 23  1  0
 14 24  1  0
M  END
>  <Pose ID>  (217)
3

>  <Score>  (217)
-5.316954135894775

>  <smiles>  (217)
Cc1ccnc(Nc2cnccn2)c1

$$$$

     RDKit          3D

 43 45  0  0  0  0  0  0  0  0999 V2000
   26.5150   14.3090   -7.9310 C   0  0  0  0  0  0  0  0  0  0  0  0
   25.9410   13.0980   -8.2810 N   0  0  0  0  0  0  0  0  0  0  0  0
   26.4810   12.3490   -9.3170 C   0  0  0  0  0  0  0  0  0  0  0  0
   27.5970   12.8160  -10.0040 N   0  0  0  0  0  0  0  0  0  0  0  0
   27.6300   14.7770   -8.6130 C   0  0  0  0  0  0  0  0  0  0  0  0
   28.1690   14.0300   -9.6520 C   0  0  0  0  0  0  0  0  0  0  0  0
   25.7460   11.1970   -9.4740 N   0  0  0  0  0  0  0  0  0  0  0  0
   26.0310    9.9870   -8.7500 C   0  0  2  0  0  0  0  0  0  0  0  0
   27.5800    9.8780   -8.5620 C   0  0  1  0  0  0  0  0  0  0  0  0
   28.0060    8.5550   -8.0410 C   0  0  1  0  0  0  0  0  0  0  0  0
   27.4760    7.4890   -8.8590 O   0  0  0  0  0  0  0  0  0  0  0  0
   26.0430    7.4790   -8.7430 C   0  0  1  0  0  0  0  0  0  0  0  0
   25.4980    8.7340   -9.3860 C   0  0  1  0  0  0  0  0  0  0  0  0
   28.3680   15.9260   -8.4510 N   0  0  0  0  0  0  0  0  0  0  0  0
   28.0720   17.1580   -8.9630 C   0  0  0  0  0  0  0  0  0  0  0  0
   28.9460   17.8220   -9.8160 C   0  0  0  0  0  0  0  0  0  0  0  0
   28.6120   19.0750  -10.3160 C   0  0  0  0  0  0  0  0  0  0  0  0
   27.4030   19.6640   -9.9640 C   0  0  0  0  0  0  0  0  0  0  0  0
   26.5290   19.0000   -9.1120 N   0  0  0  0  0  0  0  0  0  0  0  0
   26.8630   17.7470   -8.6120 C   0  0  0  0  0  0  0  0  0  0  0  0
   25.9270   15.1220   -6.8050 C   0  0  1  0  0  0  0  0  0  0  0  0
   25.8400   14.3110   -5.4860 C   0  0  1  0  0  0  0  0  0  0  0  0
   29.0500   14.4009  -10.1963 H   0  0  0  0  0  0  0  0  0  0  0  0
   24.9585   11.2009  -10.1378 H   0  0  0  0  0  0  0  0  0  0  0  0
   25.5076   10.0616   -7.7854 H   0  0  0  0  0  0  0  0  0  0  0  0
   28.0645   10.0447   -9.5354 H   0  0  0  0  0  0  0  0  0  0  0  0
   27.8773   10.6359   -7.8222 H   0  0  0  0  0  0  0  0  0  0  0  0
   29.1047    8.5018   -8.0460 H   0  0  0  0  0  0  0  0  0  0  0  0
   27.6227    8.4384   -7.0165 H   0  0  0  0  0  0  0  0  0  0  0  0
   25.6361    6.5941   -9.2541 H   0  0  0  0  0  0  0  0  0  0  0  0
   25.7522    7.4434   -7.6827 H   0  0  0  0  0  0  0  0  0  0  0  0
   24.4020    8.7303   -9.2928 H   0  0  0  0  0  0  0  0  0  0  0  0
   25.8154    8.7338  -10.4392 H   0  0  0  0  0  0  0  0  0  0  0  0
   29.2278   15.8507   -7.8889 H   0  0  0  0  0  0  0  0  0  0  0  0
   29.9022   17.3556  -10.0953 H   0  0  0  0  0  0  0  0  0  0  0  0
   29.3042   19.6006  -10.9902 H   0  0  0  0  0  0  0  0  0  0  0  0
   27.1383   20.6556  -10.3599 H   0  0  0  0  0  0  0  0  0  0  0  0
   26.1703   17.2213   -7.9383 H   0  0  0  0  0  0  0  0  0  0  0  0
   26.5599   16.0059   -6.6372 H   0  0  0  0  0  0  0  0  0  0  0  0
   24.9059   15.4123   -7.0931 H   0  0  0  0  0  0  0  0  0  0  0  0
   25.9135   14.9963   -4.6287 H   0  0  0  0  0  0  0  0  0  0  0  0
   24.8794   13.7765   -5.4469 H   0  0  0  0  0  0  0  0  0  0  0  0
   26.6654   13.5849   -5.4469 H   0  0  0  0  0  0  0  0  0  0  0  0
  1  5  2  0
  1  2  1  0
  1 21  1  0
  2  3  2  0
  3  4  1  0
  3  7  1  0
  4  6  2  0
  5  6  1  0
  5 14  1  0
  7  8  1  0
  8 13  1  0
  8  9  1  0
  9 10  1  0
 10 11  1  0
 11 12  1  0
 12 13  1  0
 14 15  1  0
 15 16  2  0
 15 20  1  0
 16 17  1  0
 17 18  2  0
 18 19  1  0
 19 20  2  0
 21 22  1  0
  6 23  1  0
  7 24  1  0
  8 25  1  1
  9 26  1  6
  9 27  1  0
 10 28  1  1
 10 29  1  0
 12 30  1  6
 12 31  1  0
 13 32  1  6
 13 33  1  0
 14 34  1  0
 16 35  1  0
 17 36  1  0
 18 37  1  0
 20 38  1  0
 21 39  1  1
 21 40  1  0
 22 41  1  1
 22 42  1  0
 22 43  1  0
M  END
>  <Pose ID>  (218)
194

>  <Score>  (218)
-5.2815423011779785

>  <smiles>  (218)
CCc1nc(NC2CCOCC2)ncc1Nc1cccnc1

$$$$

     RDKit          3D

 23 25  0  0  0  0  0  0  0  0999 V2000
   28.0510    8.1620  -10.4080 C   0  0  0  0  0  0  0  0  0  0  0  0
   27.4900    7.0420   -9.8060 N   0  0  0  0  0  0  0  0  0  0  0  0
   26.3180    7.1640   -9.0670 C   0  0  0  0  0  0  0  0  0  0  0  0
   25.7080    8.4060   -8.9310 N   0  0  0  0  0  0  0  0  0  0  0  0
   26.2700    9.5260   -9.5350 C   0  0  0  0  0  0  0  0  0  0  0  0
   27.3890    9.4380  -10.2580 C   0  0  0  0  0  0  0  0  0  0  0  0
   25.8690   10.8100   -9.5340 N   0  0  0  0  0  0  0  0  0  0  0  0
   26.6470   11.4800  -10.1920 N   0  0  0  0  0  0  0  0  0  0  0  0
   27.6090   10.7430  -10.6880 C   0  0  0  0  0  0  0  0  0  0  0  0
   28.6670   11.1870  -11.5020 C   0  0  0  0  0  0  0  0  0  0  0  0
   28.4490   12.1220  -12.5080 C   0  0  0  0  0  0  0  0  0  0  0  0
   29.8170   12.3010  -13.1140 C   0  0  0  0  0  0  0  0  0  0  0  0
   30.5790   11.4890  -12.4910 O   0  0  0  0  0  0  0  0  0  0  0  0
   29.9280   10.8100  -11.5830 C   0  0  0  0  0  0  0  0  0  0  0  0
   30.2050   13.2440  -14.2260 C   0  0  1  0  0  0  0  0  0  0  0  0
   28.9819    8.0788  -10.9881 H   0  0  0  0  0  0  0  0  0  0  0  0
   25.8737    6.2779   -8.5901 H   0  0  0  0  0  0  0  0  0  0  0  0
   24.8404    8.4967   -8.3833 H   0  0  0  0  0  0  0  0  0  0  0  0
   27.5063   12.6122  -12.7925 H   0  0  0  0  0  0  0  0  0  0  0  0
   30.3773   10.0207  -10.9624 H   0  0  0  0  0  0  0  0  0  0  0  0
   30.5901   14.1800  -13.7953 H   0  0  0  0  0  0  0  0  0  0  0  0
   30.9845   12.7780  -14.8467 H   0  0  0  0  0  0  0  0  0  0  0  0
   29.3233   13.4615  -14.8467 H   0  0  0  0  0  0  0  0  0  0  0  0
  1  6  2  0
  1  2  1  0
  2  3  2  0
  3  4  1  0
  4  5  1  0
  5  6  1  0
  5  7  2  0
  6  9  1  0
  7  8  1  0
  8  9  2  0
  9 10  1  0
 10 11  1  0
 10 14  2  0
 11 12  2  0
 12 15  1  0
 12 13  1  0
 13 14  1  0
  1 16  1  0
  3 17  1  0
  4 18  1  0
 11 19  1  0
 14 20  1  0
 15 21  1  1
 15 22  1  0
 15 23  1  0
M  END
>  <Pose ID>  (219)
125

>  <Score>  (219)
-5.246462821960449

>  <smiles>  (219)
Cc1cc(-c2nnc3[nH]cncc2-3)co1

$$$$

     RDKit          3D

 14 14  0  0  0  0  0  0  0  0999 V2000
   28.1370    7.7980  -10.4120 C   0  0  0  0  0  0  0  0  0  0  0  0
   27.3730    7.0420   -9.5310 N   0  0  0  0  0  0  0  0  0  0  0  0
   26.2150    7.5760   -8.9810 C   0  0  0  0  0  0  0  0  0  0  0  0
   25.8190    8.8670   -9.3110 C   0  0  0  0  0  0  0  0  0  0  0  0
   26.5830    9.6230  -10.1930 C   0  0  0  0  0  0  0  0  0  0  0  0
   27.7580    9.0970  -10.7190 C   0  0  0  0  0  0  0  0  0  0  0  0
   29.3780    7.2070  -11.0360 C   0  0  1  0  0  0  0  0  0  0  0  0
   25.6107    6.9770   -8.2838 H   0  0  0  0  0  0  0  0  0  0  0  0
   24.9021    9.2901   -8.8748 H   0  0  0  0  0  0  0  0  0  0  0  0
   26.2585   10.6357  -10.4743 H   0  0  0  0  0  0  0  0  0  0  0  0
   28.3877    9.7115  -11.3792 H   0  0  0  0  0  0  0  0  0  0  0  0
   30.0665    6.8791  -10.2432 H   0  0  0  0  0  0  0  0  0  0  0  0
   29.0997    6.3447  -11.6597 H   0  0  0  0  0  0  0  0  0  0  0  0
   29.8721    7.9665  -11.6597 H   0  0  0  0  0  0  0  0  0  0  0  0
  1  7  1  0
  1  6  2  0
  1  2  1  0
  2  3  2  0
  3  4  1  0
  4  5  2  0
  5  6  1  0
  3  8  1  0
  4  9  1  0
  5 10  1  0
  6 11  1  0
  7 12  1  1
  7 13  1  0
  7 14  1  0
M  END
>  <Pose ID>  (220)
1

>  <Score>  (220)
-5.221007823944092

>  <smiles>  (220)
Cc1ccccn1

$$$$

     RDKit          3D

 20 22  0  0  0  0  0  0  0  0999 V2000
   28.1270    7.5530  -10.5270 C   0  0  0  0  0  0  0  0  0  0  0  0
   27.3420    7.0420   -9.5000 N   0  0  0  0  0  0  0  0  0  0  0  0
   26.3560    7.8270   -8.9210 C   0  0  0  0  0  0  0  0  0  0  0  0
   26.1560    9.1290   -9.3670 N   0  0  0  0  0  0  0  0  0  0  0  0
   26.9400    9.6410  -10.3940 C   0  0  0  0  0  0  0  0  0  0  0  0
   27.9070    8.8910  -10.9750 C   0  0  0  0  0  0  0  0  0  0  0  0
   26.9280   10.8510  -10.9830 N   0  0  0  0  0  0  0  0  0  0  0  0
   27.8400   10.8460  -11.8710 N   0  0  0  0  0  0  0  0  0  0  0  0
   28.4510    9.7060  -11.9080 C   0  0  0  0  0  0  0  0  0  0  0  0
   25.3370    9.8850   -8.5860 C   0  0  0  0  0  0  0  0  0  0  0  0
   25.3700    9.8640   -7.3040 C   0  0  0  0  0  0  0  0  0  0  0  0
   24.3900   10.7850   -9.0810 C   0  0  0  0  0  0  0  0  0  0  0  0
   23.7620   11.3130   -7.9180 C   0  0  0  0  0  0  0  0  0  0  0  0
   24.3810   10.7510   -6.8860 O   0  0  0  0  0  0  0  0  0  0  0  0
   28.9093    6.9334  -10.9897 H   0  0  0  0  0  0  0  0  0  0  0  0
   25.7333    7.4205   -8.1105 H   0  0  0  0  0  0  0  0  0  0  0  0
   29.2763    9.4429  -12.5860 H   0  0  0  0  0  0  0  0  0  0  0  0
   26.0405    9.2688   -6.6667 H   0  0  0  0  0  0  0  0  0  0  0  0
   24.1777   11.0302  -10.1321 H   0  0  0  0  0  0  0  0  0  0  0  0
   22.9347   12.0371   -7.8814 H   0  0  0  0  0  0  0  0  0  0  0  0
  1  6  2  0
  1  2  1  0
  2  3  2  0
  3  4  1  0
  4  5  1  0
  4 10  1  0
  5  7  2  0
  5  6  1  0
  6  9  1  0
  7  8  1  0
  8  9  2  0
 10 12  1  0
 10 11  2  0
 11 14  1  0
 12 13  2  0
 13 14  1  0
  1 15  1  0
  3 16  1  0
  9 17  1  0
 11 18  1  0
 12 19  1  0
 13 20  1  0
M  END
>  <Pose ID>  (221)
258

>  <Score>  (221)
-5.200459957122803

>  <smiles>  (221)
c1cc(-n2cncc3cnnc2-3)co1

$$$$

     RDKit          3D

 27 28  0  0  0  0  0  0  0  0999 V2000
   27.9720    7.4400  -10.5550 C   0  0  0  0  0  0  0  0  0  0  0  0
   27.1840    7.0610   -9.4770 N   0  0  0  0  0  0  0  0  0  0  0  0
   26.3940    7.9990   -8.8260 C   0  0  0  0  0  0  0  0  0  0  0  0
   26.3950    9.3190   -9.2540 C   0  0  0  0  0  0  0  0  0  0  0  0
   25.5510   10.3230   -8.6120 N   0  0  0  0  0  0  0  0  0  0  0  0
   27.9720    8.7610  -10.9840 C   0  0  0  0  0  0  0  0  0  0  0  0
   27.1810    9.7030  -10.3320 C   0  0  0  0  0  0  0  0  0  0  0  0
   26.1450   11.3040   -7.9710 C   0  0  0  0  0  0  0  0  0  0  0  0
   27.3190   11.5980   -7.9490 O   0  0  0  0  0  0  0  0  0  0  0  0
   25.2490   12.3120   -7.0480 C   0  0  0  0  0  0  0  0  0  0  0  0
   24.1280   12.9480   -7.5710 N   0  0  0  0  0  0  0  0  0  0  0  0
   25.6290   12.5450   -5.7330 C   0  0  0  0  0  0  0  0  0  0  0  0
   24.8920   13.4150   -4.9400 N   0  0  0  0  0  0  0  0  0  0  0  0
   23.3900   13.8180   -6.7770 C   0  0  0  0  0  0  0  0  0  0  0  0
   23.7500   14.0490   -5.4780 C   0  0  0  0  0  0  0  0  0  0  0  0
   26.6310   11.9740   -5.2650 O   0  0  0  0  0  0  0  0  0  0  0  0
   28.8280    9.1750  -12.1550 C   0  0  1  0  0  0  0  0  0  0  0  0
   28.5962    6.6945  -11.0693 H   0  0  0  0  0  0  0  0  0  0  0  0
   25.7688    7.6965   -7.9730 H   0  0  0  0  0  0  0  0  0  0  0  0
   24.5238   10.2640   -8.6601 H   0  0  0  0  0  0  0  0  0  0  0  0
   27.1788   10.7497  -10.6704 H   0  0  0  0  0  0  0  0  0  0  0  0
   25.1760   13.5966   -3.9667 H   0  0  0  0  0  0  0  0  0  0  0  0
   22.5088   14.3251   -7.1971 H   0  0  0  0  0  0  0  0  0  0  0  0
   23.1511   14.7276   -4.8529 H   0  0  0  0  0  0  0  0  0  0  0  0
   29.7609    9.6262  -11.7859 H   0  0  0  0  0  0  0  0  0  0  0  0
   29.0647    8.2918  -12.7665 H   0  0  0  0  0  0  0  0  0  0  0  0
   28.2826    9.9089  -12.7665 H   0  0  0  0  0  0  0  0  0  0  0  0
  5  4  1  0
  5  8  1  0
  8  9  2  0
  8 10  1  0
 10 11  2  0
 10 12  1  0
 11 14  1  0
 12 16  2  0
 12 13  1  0
 13 15  1  0
 14 15  2  0
  1  6  2  0
  1  2  1  0
  2  3  2  0
  3  4  1  0
  4  7  2  0
  6 17  1  0
  6  7  1  0
  1 18  1  0
  3 19  1  0
  5 20  1  0
  7 21  1  0
 13 22  1  0
 14 23  1  0
 15 24  1  0
 17 25  1  1
 17 26  1  0
 17 27  1  0
M  END
>  <Pose ID>  (222)
42

>  <Score>  (222)
-5.186053276062012

>  <smiles>  (222)
Cc1cncc(NC(=O)c2ncc[nH]c2=O)c1

$$$$

     RDKit          3D

 24 25  0  0  0  0  0  0  0  0999 V2000
   27.7490    8.4710  -10.2830 C   0  0  0  0  0  0  0  0  0  0  0  0
   27.5120    7.2030   -9.7640 N   0  0  0  0  0  0  0  0  0  0  0  0
   26.6480    7.0420   -8.6880 C   0  0  0  0  0  0  0  0  0  0  0  0
   26.0210    8.1500   -8.1290 C   0  0  0  0  0  0  0  0  0  0  0  0
   27.1220    9.5760   -9.7220 C   0  0  0  0  0  0  0  0  0  0  0  0
   26.2800    9.4330   -8.6580 C   0  0  0  0  0  0  0  0  0  0  0  0
   28.6290    8.3720  -11.3340 N   0  0  0  0  0  0  0  0  0  0  0  0
   29.0430    9.5990  -12.0080 C   0  0  0  0  0  0  0  0  0  0  0  0
   30.4030    9.8770  -12.0500 N   0  0  0  0  0  0  0  0  0  0  0  0
   30.8620   11.0180  -12.6960 C   0  0  0  0  0  0  0  0  0  0  0  0
   29.9580   11.8830  -13.3000 C   0  0  0  0  0  0  0  0  0  0  0  0
   28.5960   11.6070  -13.2600 C   0  0  0  0  0  0  0  0  0  0  0  0
   28.1400   10.4660  -12.6130 N   0  0  0  0  0  0  0  0  0  0  0  0
   27.6150   12.5460  -13.9180 C   0  0  1  0  0  0  0  0  0  0  0  0
   26.4601    6.0385   -8.2785 H   0  0  0  0  0  0  0  0  0  0  0  0
   25.3295    8.0280   -7.2823 H   0  0  0  0  0  0  0  0  0  0  0  0
   27.3061   10.5768  -10.1398 H   0  0  0  0  0  0  0  0  0  0  0  0
   25.8026   10.3180   -8.2120 H   0  0  0  0  0  0  0  0  0  0  0  0
   28.9873    7.4555  -11.6384 H   0  0  0  0  0  0  0  0  0  0  0  0
   31.9396   11.2363  -12.7293 H   0  0  0  0  0  0  0  0  0  0  0  0
   30.3204   12.7874  -13.8105 H   0  0  0  0  0  0  0  0  0  0  0  0
   27.0499   13.0869  -13.1446 H   0  0  0  0  0  0  0  0  0  0  0  0
   28.1610   13.2666  -14.5445 H   0  0  0  0  0  0  0  0  0  0  0  0
   26.9189   11.9690  -14.5445 H   0  0  0  0  0  0  0  0  0  0  0  0
  1  7  1  0
  1  2  2  0
  1  5  1  0
  2  3  1  0
  3  4  2  0
  4  6  1  0
  5  6  2  0
  7  8  1  0
  8 13  1  0
  8  9  2  0
  9 10  1  0
 10 11  2  0
 11 12  1  0
 12 14  1  0
 12 13  2  0
  3 15  1  0
  4 16  1  0
  5 17  1  0
  6 18  1  0
  7 19  1  0
 10 20  1  0
 11 21  1  0
 14 22  1  1
 14 23  1  0
 14 24  1  0
M  END
>  <Pose ID>  (223)
50

>  <Score>  (223)
-5.171621799468994

>  <smiles>  (223)
Cc1ccnc(Nc2ccccn2)n1

$$$$

     RDKit          3D

 18 19  0  0  0  0  0  0  0  0999 V2000
   27.9420    8.0060  -10.4380 C   0  0  0  0  0  0  0  0  0  0  0  0
   27.3950    7.0430   -9.5790 N   0  0  0  0  0  0  0  0  0  0  0  0
   26.2440    7.3690   -8.8720 C   0  0  0  0  0  0  0  0  0  0  0  0
   25.6650    8.6210   -9.0290 N   0  0  0  0  0  0  0  0  0  0  0  0
   27.2750    9.2220  -10.5190 C   0  0  0  0  0  0  0  0  0  0  0  0
   26.2370    9.5450   -9.8930 C   0  0  0  0  0  0  0  0  0  0  0  0
   29.0870    7.7920  -11.1970 N   0  0  0  0  0  0  0  0  0  0  0  0
   29.5640    8.7940  -12.0350 C   0  0  0  0  0  0  0  0  0  0  0  0
   28.8950   10.0090  -12.1150 C   0  0  0  0  0  0  0  0  0  0  0  0
   27.7510   10.2250  -11.3570 C   0  0  0  0  0  0  0  0  0  0  0  0
   30.8070    8.5610  -12.8570 C   0  0  1  0  0  0  0  0  0  0  0  0
   25.7919    6.6354   -8.1883 H   0  0  0  0  0  0  0  0  0  0  0  0
   25.7888   10.5407  -10.0260 H   0  0  0  0  0  0  0  0  0  0  0  0
   29.2715   10.8008  -12.7793 H   0  0  0  0  0  0  0  0  0  0  0  0
   27.2224   11.1877  -11.4194 H   0  0  0  0  0  0  0  0  0  0  0  0
   31.6647    8.4002  -12.1873 H   0  0  0  0  0  0  0  0  0  0  0  0
   30.6659    7.6737  -13.4916 H   0  0  0  0  0  0  0  0  0  0  0  0
   30.9969    9.4392  -13.4916 H   0  0  0  0  0  0  0  0  0  0  0  0
  1  7  1  0
  1  5  1  0
  1  2  2  0
  2  3  1  0
  3  4  2  0
  4  6  1  0
  5 10  1  0
  5  6  2  0
  7  8  2  0
  8 11  1  0
  8  9  1  0
  9 10  2  0
  3 12  1  0
  6 13  1  0
  9 14  1  0
 10 15  1  0
 11 16  1  1
 11 17  1  0
 11 18  1  0
M  END
>  <Pose ID>  (224)
178

>  <Score>  (224)
-5.158284664154053

>  <smiles>  (224)
Cc1ccc2cncnc2n1

$$$$

     RDKit          3D

 18 19  0  0  0  0  0  0  0  0999 V2000
   27.8650    8.2320  -10.3310 C   0  0  0  0  0  0  0  0  0  0  0  0
   27.4910    7.0550   -9.6920 N   0  0  0  0  0  0  0  0  0  0  0  0
   26.4120    7.0520   -8.8190 C   0  0  0  0  0  0  0  0  0  0  0  0
   28.8720    8.3690  -11.1290 N   0  0  0  0  0  0  0  0  0  0  0  0
   25.7040    8.2240   -8.5840 C   0  0  0  0  0  0  0  0  0  0  0  0
   26.0760    9.4020   -9.2240 C   0  0  0  0  0  0  0  0  0  0  0  0
   27.1760    9.4080  -10.0760 C   0  0  0  0  0  0  0  0  0  0  0  0
   29.3650    9.4460  -11.7400 C   0  0  0  0  0  0  0  0  0  0  0  0
   30.6250   10.0150  -11.5390 N   0  0  0  0  0  0  0  0  0  0  0  0
   30.6620   11.0730  -12.3440 O   0  0  0  0  0  0  0  0  0  0  0  0
   29.5820   11.2160  -13.0210 C   0  0  0  0  0  0  0  0  0  0  0  0
   28.7430   10.2070  -12.6590 N   0  0  0  0  0  0  0  0  0  0  0  0
   26.1172    6.1209   -8.3128 H   0  0  0  0  0  0  0  0  0  0  0  0
   29.3812    7.4958  -11.3269 H   0  0  0  0  0  0  0  0  0  0  0  0
   24.8491    8.2206   -7.8918 H   0  0  0  0  0  0  0  0  0  0  0  0
   25.5024   10.3256   -9.0570 H   0  0  0  0  0  0  0  0  0  0  0  0
   27.4996   10.3473  -10.5481 H   0  0  0  0  0  0  0  0  0  0  0  0
   29.3728   12.0065  -13.7568 H   0  0  0  0  0  0  0  0  0  0  0  0
  1  4  1  0
  1  7  1  0
  1  2  2  0
  2  3  1  0
  3  5  2  0
  4  8  1  0
  5  6  1  0
  6  7  2  0
  8 12  1  0
  8  9  2  0
  9 10  1  0
 10 11  1  0
 11 12  2  0
  3 13  1  0
  4 14  1  0
  5 15  1  0
  6 16  1  0
  7 17  1  0
 11 18  1  0
M  END
>  <Pose ID>  (225)
39

>  <Score>  (225)
-5.1291046142578125

>  <smiles>  (225)
c1ccc(Nc2ncon2)nc1

$$$$

     RDKit          3D

 44 46  0  0  0  0  0  0  0  0999 V2000
   25.8510   13.9210   -7.9350 C   0  0  0  0  0  0  0  0  0  0  0  0
   25.5110   12.7200   -8.5360 N   0  0  0  0  0  0  0  0  0  0  0  0
   26.4320   12.0640   -9.3420 C   0  0  0  0  0  0  0  0  0  0  0  0
   27.6930   12.6140   -9.5460 N   0  0  0  0  0  0  0  0  0  0  0  0
   27.1090   14.4720   -8.1340 C   0  0  0  0  0  0  0  0  0  0  0  0
   28.0300   13.8180   -8.9440 C   0  0  0  0  0  0  0  0  0  0  0  0
   25.8680   10.9040   -9.8190 N   0  0  0  0  0  0  0  0  0  0  0  0
   25.9390    9.6560   -9.1100 C   0  0  2  0  0  0  0  0  0  0  0  0
   27.3170    9.5820   -8.3730 C   0  0  1  0  0  0  0  0  0  0  0  0
   27.5970    8.2400   -7.8070 C   0  0  1  0  0  0  0  0  0  0  0  0
   27.4620    7.2190   -8.8190 O   0  0  0  0  0  0  0  0  0  0  0  0
   26.0870    7.1550   -9.2350 C   0  0  1  0  0  0  0  0  0  0  0  0
   25.7440    8.4340   -9.9640 C   0  0  1  0  0  0  0  0  0  0  0  0
   27.6720   15.6290   -7.6500 N   0  0  0  0  0  0  0  0  0  0  0  0
   27.5170   16.9030   -8.1470 C   0  0  0  0  0  0  0  0  0  0  0  0
   28.6000   17.6390   -8.6120 C   0  0  0  0  0  0  0  0  0  0  0  0
   28.4020   18.9110   -9.1360 C   0  0  0  0  0  0  0  0  0  0  0  0
   27.1220   19.4470   -9.1950 C   0  0  0  0  0  0  0  0  0  0  0  0
   26.0380   18.7100   -8.7300 N   0  0  0  0  0  0  0  0  0  0  0  0
   26.2330   17.4430   -8.2020 C   0  0  0  0  0  0  0  0  0  0  0  0
   26.9450   20.5860   -9.6650 O   0  0  0  0  0  0  0  0  0  0  0  0
   29.3960   14.4180   -9.1670 C   0  0  1  0  0  0  0  0  0  0  0  0
   29.7050   14.6140  -10.6740 C   0  0  1  0  0  0  0  0  0  0  0  0
   25.1205   14.4402   -7.2972 H   0  0  0  0  0  0  0  0  0  0  0  0
   25.3739   10.9308  -10.7224 H   0  0  0  0  0  0  0  0  0  0  0  0
   25.0972    9.6460   -8.4019 H   0  0  0  0  0  0  0  0  0  0  0  0
   28.1125    9.8336   -9.0899 H   0  0  0  0  0  0  0  0  0  0  0  0
   27.2818   10.2933   -7.5346 H   0  0  0  0  0  0  0  0  0  0  0  0
   28.6232    8.2223   -7.4113 H   0  0  0  0  0  0  0  0  0  0  0  0
   26.8736    8.0381   -7.0033 H   0  0  0  0  0  0  0  0  0  0  0  0
   25.9425    6.2956   -9.9062 H   0  0  0  0  0  0  0  0  0  0  0  0
   25.4340    7.0356   -8.3579 H   0  0  0  0  0  0  0  0  0  0  0  0
   24.6910    8.3886  -10.2789 H   0  0  0  0  0  0  0  0  0  0  0  0
   26.4219    8.5183  -10.8262 H   0  0  0  0  0  0  0  0  0  0  0  0
   28.2777   15.5315   -6.8227 H   0  0  0  0  0  0  0  0  0  0  0  0
   29.6139   17.2150   -8.5654 H   0  0  0  0  0  0  0  0  0  0  0  0
   29.2594   19.4935   -9.5042 H   0  0  0  0  0  0  0  0  0  0  0  0
   25.0885   19.1063   -8.7780 H   0  0  0  0  0  0  0  0  0  0  0  0
   25.3757   16.8647   -7.8270 H   0  0  0  0  0  0  0  0  0  0  0  0
   29.4407   15.3958   -8.6651 H   0  0  0  0  0  0  0  0  0  0  0  0
   30.1434   13.7245   -8.7541 H   0  0  0  0  0  0  0  0  0  0  0  0
   30.6291   15.2002  -10.7856 H   0  0  0  0  0  0  0  0  0  0  0  0
   29.8336   13.6320  -11.1527 H   0  0  0  0  0  0  0  0  0  0  0  0
   28.8715   15.1489  -11.1527 H   0  0  0  0  0  0  0  0  0  0  0  0
  1  2  2  0
  1  5  1  0
  2  3  1  0
  3  7  1  0
  3  4  2  0
  4  6  1  0
  5  6  2  0
  5 14  1  0
  6 22  1  0
  7  8  1  0
  8 13  1  0
  8  9  1  0
  9 10  1  0
 10 11  1  0
 11 12  1  0
 12 13  1  0
 14 15  1  0
 15 16  1  0
 15 20  2  0
 16 17  2  0
 17 18  1  0
 18 21  2  0
 18 19  1  0
 19 20  1  0
 22 23  1  0
  1 24  1  0
  7 25  1  0
  8 26  1  1
  9 27  1  6
  9 28  1  0
 10 29  1  1
 10 30  1  0
 12 31  1  6
 12 32  1  0
 13 33  1  6
 13 34  1  0
 14 35  1  0
 16 36  1  0
 17 37  1  0
 19 38  1  0
 20 39  1  0
 22 40  1  1
 22 41  1  0
 23 42  1  1
 23 43  1  0
 23 44  1  0
M  END
>  <Pose ID>  (226)
211

>  <Score>  (226)
-5.106041431427002

>  <smiles>  (226)
CCc1nc(NC2CCOCC2)ncc1Nc1ccc(=O)[nH]c1

$$$$

     RDKit          3D

 16 17  0  0  0  0  0  0  0  0999 V2000
   28.1360    7.8660  -10.4110 C   0  0  0  0  0  0  0  0  0  0  0  0
   27.4340    7.0440   -9.5380 N   0  0  0  0  0  0  0  0  0  0  0  0
   26.2740    7.5050   -8.9280 C   0  0  0  0  0  0  0  0  0  0  0  0
   25.8130    8.7900   -9.1930 N   0  0  0  0  0  0  0  0  0  0  0  0
   26.5140    9.6120  -10.0680 C   0  0  0  0  0  0  0  0  0  0  0  0
   27.6740    9.1500  -10.6760 C   0  0  0  0  0  0  0  0  0  0  0  0
   26.2720   10.8710  -10.4760 N   0  0  0  0  0  0  0  0  0  0  0  0
   27.1500   11.2130  -11.2570 N   0  0  0  0  0  0  0  0  0  0  0  0
   28.0220   10.2590  -11.4470 C   0  0  0  0  0  0  0  0  0  0  0  0
   29.3970    7.3660  -11.0700 C   0  0  1  0  0  0  0  0  0  0  0  0
   25.7204    6.8538   -8.2356 H   0  0  0  0  0  0  0  0  0  0  0  0
   24.9529    9.1324   -8.7414 H   0  0  0  0  0  0  0  0  0  0  0  0
   28.8958   10.3208  -12.1123 H   0  0  0  0  0  0  0  0  0  0  0  0
   30.1249    7.0774  -10.2974 H   0  0  0  0  0  0  0  0  0  0  0  0
   29.1619    6.4930  -11.6966 H   0  0  0  0  0  0  0  0  0  0  0  0
   29.8240    8.1629  -11.6966 H   0  0  0  0  0  0  0  0  0  0  0  0
  1 10  1  0
  1  6  2  0
  1  2  1  0
  2  3  2  0
  3  4  1  0
  4  5  1  0
  5  6  1  0
  5  7  2  0
  6  9  1  0
  7  8  1  0
  8  9  2  0
  3 11  1  0
  4 12  1  0
  9 13  1  0
 10 14  1  1
 10 15  1  0
 10 16  1  0
M  END
>  <Pose ID>  (227)
19

>  <Score>  (227)
-5.104814052581787

>  <smiles>  (227)
Cc1nc[nH]c2nncc1-2

$$$$

     RDKit          3D

 19 20  0  0  0  0  0  0  0  0999 V2000
   27.8640    8.2740  -10.3050 C   0  0  0  0  0  0  0  0  0  0  0  0
   27.5030    7.0750   -9.6990 N   0  0  0  0  0  0  0  0  0  0  0  0
   26.4400    7.0410   -8.8080 C   0  0  0  0  0  0  0  0  0  0  0  0
   28.8550    8.4400  -11.1160 N   0  0  0  0  0  0  0  0  0  0  0  0
   25.7340    8.2020   -8.5210 C   0  0  0  0  0  0  0  0  0  0  0  0
   26.0930    9.4020   -9.1280 C   0  0  0  0  0  0  0  0  0  0  0  0
   27.1770    9.4390   -9.9980 C   0  0  0  0  0  0  0  0  0  0  0  0
   29.3350    9.5380  -11.6990 C   0  0  0  0  0  0  0  0  0  0  0  0
   30.5980   10.1030  -11.5020 N   0  0  0  0  0  0  0  0  0  0  0  0
   30.6180   11.1880  -12.2720 O   0  0  0  0  0  0  0  0  0  0  0  0
   29.5260   11.3510  -12.9240 C   0  0  0  0  0  0  0  0  0  0  0  0
   28.6800   10.2830  -12.6070 C   0  0  0  0  0  0  0  0  0  0  0  0
   26.1559    6.0928   -8.3281 H   0  0  0  0  0  0  0  0  0  0  0  0
   29.3616    7.5751  -11.3531 H   0  0  0  0  0  0  0  0  0  0  0  0
   24.8915    8.1732   -7.8143 H   0  0  0  0  0  0  0  0  0  0  0  0
   25.5209   10.3182   -8.9201 H   0  0  0  0  0  0  0  0  0  0  0  0
   27.4904   10.3945  -10.4438 H   0  0  0  0  0  0  0  0  0  0  0  0
   29.2960   12.1806  -13.6088 H   0  0  0  0  0  0  0  0  0  0  0  0
   27.6782   10.0908  -13.0186 H   0  0  0  0  0  0  0  0  0  0  0  0
  1  4  1  0
  1  7  1  0
  1  2  2  0
  2  3  1  0
  3  5  2  0
  4  8  1  0
  5  6  1  0
  6  7  2  0
  8 12  1  0
  8  9  2  0
  9 10  1  0
 10 11  1  0
 11 12  2  0
  3 13  1  0
  4 14  1  0
  5 15  1  0
  6 16  1  0
  7 17  1  0
 11 18  1  0
 12 19  1  0
M  END
>  <Pose ID>  (228)
38

>  <Score>  (228)
-5.101537704467773

>  <smiles>  (228)
c1ccc(Nc2ccon2)nc1

$$$$

     RDKit          3D

 28 29  0  0  0  0  0  0  0  0999 V2000
   27.7320    8.4840  -10.2770 C   0  0  0  0  0  0  0  0  0  0  0  0
   27.4680    7.2080   -9.7930 N   0  0  0  0  0  0  0  0  0  0  0  0
   26.6620    7.0420   -8.6730 C   0  0  0  0  0  0  0  0  0  0  0  0
   26.1210    8.1530   -8.0360 C   0  0  0  0  0  0  0  0  0  0  0  0
   27.1910    9.5930   -9.6380 C   0  0  0  0  0  0  0  0  0  0  0  0
   26.4090    9.4430   -8.5300 C   0  0  0  0  0  0  0  0  0  0  0  0
   28.5430    8.3880  -11.3830 N   0  0  0  0  0  0  0  0  0  0  0  0
   28.9740    9.6220  -12.0340 C   0  0  0  0  0  0  0  0  0  0  0  0
   30.3400    9.8400  -12.1480 N   0  0  0  0  0  0  0  0  0  0  0  0
   30.8110   10.9860  -12.7790 C   0  0  0  0  0  0  0  0  0  0  0  0
   29.9160   11.9140  -13.2930 C   0  0  0  0  0  0  0  0  0  0  0  0
   28.5470   11.6960  -13.1800 C   0  0  0  0  0  0  0  0  0  0  0  0
   28.0770   10.5510  -12.5510 N   0  0  0  0  0  0  0  0  0  0  0  0
   27.8720   12.7480  -13.7630 O   0  0  0  0  0  0  0  0  0  0  0  0
   28.0060   14.0190  -13.5900 C   0  0  1  0  0  0  0  0  0  0  0  0
   27.2170   14.6030  -12.4020 C   0  0  1  0  0  0  0  0  0  0  0  0
   26.4522    6.0321   -8.2908 H   0  0  0  0  0  0  0  0  0  0  0  0
   25.4744    8.0276   -7.1550 H   0  0  0  0  0  0  0  0  0  0  0  0
   27.3950   10.6008  -10.0289 H   0  0  0  0  0  0  0  0  0  0  0  0
   26.0023   10.3293   -8.0209 H   0  0  0  0  0  0  0  0  0  0  0  0
   28.8389    7.4695  -11.7431 H   0  0  0  0  0  0  0  0  0  0  0  0
   31.8937   11.1573  -12.8709 H   0  0  0  0  0  0  0  0  0  0  0  0
   30.2893   12.8217  -13.7896 H   0  0  0  0  0  0  0  0  0  0  0  0
   29.0732   14.2303  -13.4273 H   0  0  0  0  0  0  0  0  0  0  0  0
   27.5981   14.4962  -14.4933 H   0  0  0  0  0  0  0  0  0  0  0  0
   27.6719   14.2663  -11.4587 H   0  0  0  0  0  0  0  0  0  0  0  0
   27.2423   15.7017  -12.4496 H   0  0  0  0  0  0  0  0  0  0  0  0
   26.1736   14.2579  -12.4496 H   0  0  0  0  0  0  0  0  0  0  0  0
  1  7  1  0
  1  2  2  0
  1  5  1  0
  2  3  1  0
  3  4  2  0
  4  6  1  0
  5  6  2  0
  7  8  1  0
  8 13  1  0
  8  9  2  0
  9 10  1  0
 10 11  2  0
 11 12  1  0
 12 14  1  0
 12 13  2  0
 14 15  1  0
 15 16  1  0
  3 17  1  0
  4 18  1  0
  5 19  1  0
  6 20  1  0
  7 21  1  0
 10 22  1  0
 11 23  1  0
 15 24  1  1
 15 25  1  0
 16 26  1  1
 16 27  1  0
 16 28  1  0
M  END
>  <Pose ID>  (229)
54

>  <Score>  (229)
-5.09618616104126

>  <smiles>  (229)
CCOc1ccnc(Nc2ccccn2)n1

$$$$

     RDKit          3D

 14 14  0  0  0  0  0  0  0  0999 V2000
   28.1970    7.7820  -10.3680 C   0  0  0  0  0  0  0  0  0  0  0  0
   27.3690    7.0420   -9.5330 N   0  0  0  0  0  0  0  0  0  0  0  0
   26.2420    7.6310   -8.9720 C   0  0  0  0  0  0  0  0  0  0  0  0
   25.9430    8.9610   -9.2450 C   0  0  0  0  0  0  0  0  0  0  0  0
   27.8980    9.1120  -10.6400 C   0  0  0  0  0  0  0  0  0  0  0  0
   26.8000    9.7040  -10.0860 C   0  0  0  0  0  0  0  0  0  0  0  0
   26.5010   11.1540  -10.3730 C   0  0  1  0  0  0  0  0  0  0  0  0
   29.0883    7.3159  -10.8134 H   0  0  0  0  0  0  0  0  0  0  0  0
   25.5863    7.0445   -8.3116 H   0  0  0  0  0  0  0  0  0  0  0  0
   25.0479    9.4297   -8.8102 H   0  0  0  0  0  0  0  0  0  0  0  0
   28.5519    9.6924  -11.3075 H   0  0  0  0  0  0  0  0  0  0  0  0
   26.3884   11.6998   -9.4246 H   0  0  0  0  0  0  0  0  0  0  0  0
   27.3279   11.5913  -10.9518 H   0  0  0  0  0  0  0  0  0  0  0  0
   25.5686   11.2285  -10.9518 H   0  0  0  0  0  0  0  0  0  0  0  0
  1  5  2  0
  1  2  1  0
  2  3  2  0
  3  4  1  0
  4  6  2  0
  5  6  1  0
  6  7  1  0
  1  8  1  0
  3  9  1  0
  4 10  1  0
  5 11  1  0
  7 12  1  1
  7 13  1  0
  7 14  1  0
M  END
>  <Pose ID>  (230)
48

>  <Score>  (230)
-5.066685199737549

>  <smiles>  (230)
Cc1ccncc1

$$$$

     RDKit          3D

 14 15  0  0  0  0  0  0  0  0999 V2000
   28.2210    7.7720  -10.4050 C   0  0  0  0  0  0  0  0  0  0  0  0
   27.3980    7.0420   -9.5550 N   0  0  0  0  0  0  0  0  0  0  0  0
   26.2150    7.5970   -9.0850 C   0  0  0  0  0  0  0  0  0  0  0  0
   25.8530    8.8840   -9.4670 N   0  0  0  0  0  0  0  0  0  0  0  0
   26.6730    9.6140  -10.3170 C   0  0  0  0  0  0  0  0  0  0  0  0
   27.8600    9.0580  -10.7860 C   0  0  0  0  0  0  0  0  0  0  0  0
   26.5410   10.8550  -10.8190 N   0  0  0  0  0  0  0  0  0  0  0  0
   27.6300   11.1310  -11.6150 C   0  0  0  0  0  0  0  0  0  0  0  0
   28.3540    9.9240  -11.4840 C   0  0  0  0  0  0  0  0  0  0  0  0
   29.1581    7.3312  -10.7758 H   0  0  0  0  0  0  0  0  0  0  0  0
   25.5651    7.0192   -8.4113 H   0  0  0  0  0  0  0  0  0  0  0  0
   24.9756    9.2963   -9.1190 H   0  0  0  0  0  0  0  0  0  0  0  0
   27.8695   12.0368  -12.1913 H   0  0  0  0  0  0  0  0  0  0  0  0
   29.3194    9.7744  -11.9896 H   0  0  0  0  0  0  0  0  0  0  0  0
  1  6  2  0
  1  2  1  0
  2  3  2  0
  3  4  1  0
  4  5  1  0
  5  7  2  0
  5  6  1  0
  6  9  1  0
  7  8  1  0
  8  9  2  0
  1 10  1  0
  3 11  1  0
  4 12  1  0
  8 13  1  0
  9 14  1  0
M  END
>  <Pose ID>  (231)
16

>  <Score>  (231)
-5.064141273498535

>  <smiles>  (231)
c1cc2cnc[nH]c-2n1

$$$$

     RDKit          3D

 22 23  0  0  0  0  0  0  0  0999 V2000
   27.8770    8.3020  -10.3250 C   0  0  0  0  0  0  0  0  0  0  0  0
   27.5100    7.0880   -9.7570 N   0  0  0  0  0  0  0  0  0  0  0  0
   26.4940    7.0440   -8.8070 C   0  0  0  0  0  0  0  0  0  0  0  0
   25.8510    8.2150   -8.4260 C   0  0  0  0  0  0  0  0  0  0  0  0
   28.8290    8.4720  -11.1810 N   0  0  0  0  0  0  0  0  0  0  0  0
   26.2180    9.4290   -8.9950 C   0  0  0  0  0  0  0  0  0  0  0  0
   27.2540    9.4750   -9.9240 C   0  0  0  0  0  0  0  0  0  0  0  0
   29.3190    9.5830  -11.7360 C   0  0  0  0  0  0  0  0  0  0  0  0
   30.6080   10.0910  -11.5840 N   0  0  0  0  0  0  0  0  0  0  0  0
   30.6270   11.2140  -12.3000 O   0  0  0  0  0  0  0  0  0  0  0  0
   29.5100   11.4460  -12.8810 C   0  0  0  0  0  0  0  0  0  0  0  0
   28.6430   10.3940  -12.5720 C   0  0  0  0  0  0  0  0  0  0  0  0
   29.1880   12.6410  -13.7440 C   0  0  1  0  0  0  0  0  0  0  0  0
   26.2005    6.0834   -8.3585 H   0  0  0  0  0  0  0  0  0  0  0  0
   25.0501    8.1815   -7.6728 H   0  0  0  0  0  0  0  0  0  0  0  0
   29.2883    7.6026  -11.4877 H   0  0  0  0  0  0  0  0  0  0  0  0
   25.6907   10.3519   -8.7117 H   0  0  0  0  0  0  0  0  0  0  0  0
   27.5783   10.4405  -10.3396 H   0  0  0  0  0  0  0  0  0  0  0  0
   27.6149   10.2562  -12.9382 H   0  0  0  0  0  0  0  0  0  0  0  0
   28.9554   13.5042  -13.1030 H   0  0  0  0  0  0  0  0  0  0  0  0
   30.0541   12.8787  -14.3791 H   0  0  0  0  0  0  0  0  0  0  0  0
   28.3197   12.4114  -14.3791 H   0  0  0  0  0  0  0  0  0  0  0  0
  1  5  1  0
  1  7  1  0
  1  2  2  0
  2  3  1  0
  3  4  2  0
  4  6  1  0
  5  8  1  0
  6  7  2  0
  8 12  1  0
  8  9  2  0
  9 10  1  0
 10 11  1  0
 11 13  1  0
 11 12  2  0
  3 14  1  0
  4 15  1  0
  5 16  1  0
  6 17  1  0
  7 18  1  0
 12 19  1  0
 13 20  1  1
 13 21  1  0
 13 22  1  0
M  END
>  <Pose ID>  (232)
40

>  <Score>  (232)
-5.057102203369141

>  <smiles>  (232)
Cc1cc(Nc2ccccn2)no1

$$$$

     RDKit          3D

 24 25  0  0  0  0  0  0  0  0999 V2000
   27.6930    8.5340  -10.4250 C   0  0  0  0  0  0  0  0  0  0  0  0
   27.6460    7.2710   -9.8500 N   0  0  0  0  0  0  0  0  0  0  0  0
   26.9080    7.0610   -8.6920 C   0  0  0  0  0  0  0  0  0  0  0  0
   26.2150    8.1150   -8.1080 N   0  0  0  0  0  0  0  0  0  0  0  0
   28.4060    8.6410  -11.4670 N   0  0  0  0  0  0  0  0  0  0  0  0
   26.2620    9.3800   -8.6840 C   0  0  0  0  0  0  0  0  0  0  0  0
   26.9890    9.5810   -9.8570 C   0  0  0  0  0  0  0  0  0  0  0  0
   28.4740    9.8220  -12.0740 C   0  0  0  0  0  0  0  0  0  0  0  0
   29.6540   10.5540  -12.1080 N   0  0  0  0  0  0  0  0  0  0  0  0
   29.6910   11.7840  -12.7550 C   0  0  0  0  0  0  0  0  0  0  0  0
   28.5460   12.2820  -13.3660 C   0  0  0  0  0  0  0  0  0  0  0  0
   27.3650   11.5500  -13.3330 C   0  0  0  0  0  0  0  0  0  0  0  0
   27.3400   10.3050  -12.7100 C   0  0  0  0  0  0  0  0  0  0  0  0
   29.2480    7.6950  -12.2270 C   0  0  1  0  0  0  0  0  0  0  0  0
   26.8720    6.0602   -8.2370 H   0  0  0  0  0  0  0  0  0  0  0  0
   25.7273   10.2195   -8.2157 H   0  0  0  0  0  0  0  0  0  0  0  0
   27.0028   10.5734  -10.3314 H   0  0  0  0  0  0  0  0  0  0  0  0
   30.6259   12.3629  -12.7834 H   0  0  0  0  0  0  0  0  0  0  0  0
   28.5747   13.2562  -13.8760 H   0  0  0  0  0  0  0  0  0  0  0  0
   26.4530   11.9529  -13.7976 H   0  0  0  0  0  0  0  0  0  0  0  0
   26.4192    9.7034  -12.7223 H   0  0  0  0  0  0  0  0  0  0  0  0
   29.8118    7.0615  -11.5264 H   0  0  0  0  0  0  0  0  0  0  0  0
   28.6087    7.0623  -12.8603 H   0  0  0  0  0  0  0  0  0  0  0  0
   29.9505    8.2566  -12.8603 H   0  0  0  0  0  0  0  0  0  0  0  0
  1  5  1  0
  1  7  1  0
  1  2  2  0
  2  3  1  0
  3  4  2  0
  4  6  1  0
  5 14  1  0
  5  8  1  0
  6  7  2  0
  8 13  1  0
  8  9  2  0
  9 10  1  0
 10 11  2  0
 11 12  1  0
 12 13  2  0
  3 15  1  0
  6 16  1  0
  7 17  1  0
 10 18  1  0
 11 19  1  0
 12 20  1  0
 13 21  1  0
 14 22  1  1
 14 23  1  0
 14 24  1  0
M  END
>  <Pose ID>  (233)
153

>  <Score>  (233)
-5.023380756378174

>  <smiles>  (233)
CN(c1ccccn1)c1ccncn1

$$$$
