
     RDKit          3D

 56 60  0  0  0  0  0  0  0  0999 V2000
   25.1140    9.4800   -6.7450 C   0  0  0  0  0  0  0  0  0  0  0  0
   24.8690    8.1360   -6.4790 C   0  0  0  0  0  0  0  0  0  0  0  0
   25.4620    7.1510   -7.2580 N   0  0  0  0  0  0  0  0  0  0  0  0
   26.3090    7.5110   -8.3060 C   0  0  0  0  0  0  0  0  0  0  0  0
   24.6760   10.5570   -6.1530 O   0  0  0  0  0  0  0  0  0  0  0  0
   26.5550    8.8510   -8.5680 C   0  0  0  0  0  0  0  0  0  0  0  0
   25.9610    9.8370   -7.7910 C   0  0  0  0  0  0  0  0  0  0  0  0
   26.9870    6.7510   -9.1830 N   0  0  0  0  0  0  0  0  0  0  0  0
   27.6840    7.5780  -10.0350 C   0  0  0  0  0  0  0  0  0  0  0  0
   27.3060    8.8420   -9.5270 C   0  0  0  0  0  0  0  0  0  0  0  0
   25.6450   11.1520   -5.2940 C   0  0  1  0  0  0  0  0  0  0  0  0
   28.5370    7.4440  -11.1020 N   0  0  0  0  0  0  0  0  0  0  0  0
   29.0530    8.5400  -11.7100 C   0  0  0  0  0  0  0  0  0  0  0  0
   30.4420    8.7900  -11.8240 N   0  0  0  0  0  0  0  0  0  0  0  0
   30.6070   10.0000  -12.5120 C   0  0  0  0  0  0  0  0  0  0  0  0
   29.2510   10.3490  -12.7410 C   0  0  0  0  0  0  0  0  0  0  0  0
   28.3280    9.4780  -12.2750 N   0  0  0  0  0  0  0  0  0  0  0  0
   26.8650    9.5990  -12.4190 C   0  0  1  0  0  0  0  0  0  0  0  0
   24.0140    7.7540   -5.3670 C   0  0  0  0  0  0  0  0  0  0  0  0
   22.7080    8.2300   -5.3890 C   0  0  0  0  0  0  0  0  0  0  0  0
   21.8160    7.8580   -4.3900 N   0  0  0  0  0  0  0  0  0  0  0  0
   22.2300    7.0110   -3.3700 C   0  0  0  0  0  0  0  0  0  0  0  0
   23.5360    6.5370   -3.3450 C   0  0  0  0  0  0  0  0  0  0  0  0
   24.4210    6.9140   -4.3690 C   0  0  0  0  0  0  0  0  0  0  0  0
   22.3390    8.9910   -6.3000 O   0  0  0  0  0  0  0  0  0  0  0  0
   20.3890    8.3090   -4.3060 C   0  0  1  0  0  0  0  0  0  0  0  0
   24.1810    5.7130   -2.4550 N   0  0  0  0  0  0  0  0  0  0  0  0
   23.2420    5.1030   -1.3310 C   0  0  2  0  0  0  0  0  0  0  0  0
   23.4910    5.9600   -0.1150 C   0  0  1  0  0  0  0  0  0  0  0  0
   23.5560    4.6040    0.6710 C   0  0  1  0  0  0  0  0  0  0  0  0
   23.6730    3.9260   -0.6330 C   0  0  1  0  0  0  0  0  0  0  0  0
   25.2767    6.1569   -7.0623 H   0  0  0  0  0  0  0  0  0  0  0  0
   26.1593   10.8983   -8.0015 H   0  0  0  0  0  0  0  0  0  0  0  0
   27.6737    9.7757   -9.9776 H   0  0  0  0  0  0  0  0  0  0  0  0
   25.3616   10.9780   -4.2455 H   0  0  0  0  0  0  0  0  0  0  0  0
   26.6306   10.7033   -5.4867 H   0  0  0  0  0  0  0  0  0  0  0  0
   25.6907   12.2340   -5.4867 H   0  0  0  0  0  0  0  0  0  0  0  0
   28.7866    6.5046  -11.4428 H   0  0  0  0  0  0  0  0  0  0  0  0
   31.5285   10.5299  -12.7948 H   0  0  0  0  0  0  0  0  0  0  0  0
   28.9676   11.2730  -13.2663 H   0  0  0  0  0  0  0  0  0  0  0  0
   26.4004    9.6374  -11.4227 H   0  0  0  0  0  0  0  0  0  0  0  0
   26.6258   10.5200  -12.9709 H   0  0  0  0  0  0  0  0  0  0  0  0
   26.4777    8.7298  -12.9709 H   0  0  0  0  0  0  0  0  0  0  0  0
   21.5231    6.7150   -2.5809 H   0  0  0  0  0  0  0  0  0  0  0  0
   25.4515    6.5292   -4.3673 H   0  0  0  0  0  0  0  0  0  0  0  0
   20.0953    8.4018   -3.2500 H   0  0  0  0  0  0  0  0  0  0  0  0
   20.2829    9.2845   -4.8032 H   0  0  0  0  0  0  0  0  0  0  0  0
   19.7416    7.5717   -4.8032 H   0  0  0  0  0  0  0  0  0  0  0  0
   25.1889    5.5085   -2.5125 H   0  0  0  0  0  0  0  0  0  0  0  0
   22.2849    4.9833   -1.8598 H   0  0  0  0  0  0  0  0  0  0  0  0
   24.4289    6.5345   -0.1330 H   0  0  0  0  0  0  0  0  0  0  0  0
   22.8281    6.7878    0.1773 H   0  0  0  0  0  0  0  0  0  0  0  0
   24.4337    4.4947    1.3250 H   0  0  0  0  0  0  0  0  0  0  0  0
   22.7837    4.3220    1.4018 H   0  0  0  0  0  0  0  0  0  0  0  0
   22.9931    3.0691   -0.7487 H   0  0  0  0  0  0  0  0  0  0  0  0
   24.6238    3.4484   -0.9119 H   0  0  0  0  0  0  0  0  0  0  0  0
  1  7  1  0
  1  2  2  0
  1  5  1  0
  2  3  1  0
  2 19  1  0
  3  4  1  0
  4  8  2  0
  4  6  1  0
  6 10  1  0
  6  7  2  0
  8  9  1  0
  9 12  1  0
  9 10  2  0
 12 13  1  0
 13 17  1  0
 13 14  2  0
 14 15  1  0
 15 16  2  0
 16 17  1  0
 17 18  1  0
 19 20  1  0
 19 24  2  0
 20 25  2  0
 20 21  1  0
 21 26  1  0
 21 22  1  0
 22 23  2  0
 23 24  1  0
 23 27  1  0
 27 28  1  0
 28 31  1  0
 28 29  1  0
 29 30  1  0
 30 31  1  0
  5 11  1  0
  3 32  1  0
  7 33  1  0
 10 34  1  0
 11 35  1  1
 11 36  1  0
 11 37  1  0
 12 38  1  0
 15 39  1  0
 16 40  1  0
 18 41  1  1
 18 42  1  0
 18 43  1  0
 22 44  1  0
 24 45  1  0
 26 46  1  1
 26 47  1  0
 26 48  1  0
 27 49  1  0
 28 50  1  6
 29 51  1  6
 29 52  1  0
 30 53  1  1
 30 54  1  0
 31 55  1  1
 31 56  1  0
M  END
>  <Pose ID>  (1)
23

>  <Score>  (1)
-8.61648941040039

>  <smiles>  (1)
COc1cc2cc(Nc3nccn3C)nc-2[nH]c1-c1cc(NC2CCC2)cn(C)c1=O

$$$$

     RDKit          3D

 59 63  0  0  0  0  0  0  0  0999 V2000
   25.2490    9.3020   -6.8610 C   0  0  0  0  0  0  0  0  0  0  0  0
   25.1680    7.9250   -6.6710 C   0  0  0  0  0  0  0  0  0  0  0  0
   25.8290    7.0640   -7.5340 N   0  0  0  0  0  0  0  0  0  0  0  0
   26.5810    7.5770   -8.5890 C   0  0  0  0  0  0  0  0  0  0  0  0
   24.7250   10.2880   -6.1880 O   0  0  0  0  0  0  0  0  0  0  0  0
   26.6650    8.9480   -8.7760 C   0  0  0  0  0  0  0  0  0  0  0  0
   26.0020    9.8130   -7.9160 C   0  0  0  0  0  0  0  0  0  0  0  0
   27.2990    6.9530   -9.5390 N   0  0  0  0  0  0  0  0  0  0  0  0
   27.8610    7.9020  -10.3640 C   0  0  0  0  0  0  0  0  0  0  0  0
   27.3660    9.0820   -9.7640 C   0  0  0  0  0  0  0  0  0  0  0  0
   25.6570   10.9380   -5.3320 C   0  0  1  0  0  0  0  0  0  0  0  0
   28.6730    7.9280  -11.4710 N   0  0  0  0  0  0  0  0  0  0  0  0
   29.0350    9.1110  -12.0270 C   0  0  0  0  0  0  0  0  0  0  0  0
   30.3810    9.5200  -12.1790 N   0  0  0  0  0  0  0  0  0  0  0  0
   30.3780   10.7770  -12.7960 C   0  0  0  0  0  0  0  0  0  0  0  0
   28.9850   10.9850  -12.9490 C   0  0  0  0  0  0  0  0  0  0  0  0
   28.1870    9.9890  -12.5030 N   0  0  0  0  0  0  0  0  0  0  0  0
   26.7140    9.9540  -12.5800 C   0  0  1  0  0  0  0  0  0  0  0  0
   26.0340   10.3640  -13.8880 C   0  0  1  0  0  0  0  0  0  0  0  0
   24.4340    7.4230   -5.6330 N   0  0  0  0  0  0  0  0  0  0  0  0
   23.7850    8.2720   -4.7790 C   0  0  0  0  0  0  0  0  0  0  0  0
   24.2380    6.2490   -5.3600 N   0  0  0  0  0  0  0  0  0  0  0  0
   23.1400    7.4520   -3.9260 C   0  0  0  0  0  0  0  0  0  0  0  0
   23.4360    6.1770   -4.3080 C   0  0  0  0  0  0  0  0  0  0  0  0
   22.3840    8.0200   -2.9310 N   0  0  0  0  0  0  0  0  0  0  0  0
   22.7240    7.2840   -1.7160 C   0  0  1  0  0  0  0  0  0  0  0  0
   21.3910    7.5210   -0.7620 C   0  0  1  0  0  0  0  0  0  0  0  0
   21.6820    7.0300    0.6180 C   0  0  1  0  0  0  0  0  0  0  0  0
   22.0620    5.5660    0.6170 C   0  0  1  0  0  0  0  0  0  0  0  0
   23.3780    5.4170   -0.1480 C   0  0  1  0  0  0  0  0  0  0  0  0
   23.2540    5.9200   -1.5590 C   0  0  1  0  0  0  0  0  0  0  0  0
   25.7641    6.0455   -7.3952 H   0  0  0  0  0  0  0  0  0  0  0  0
   26.0711   10.9003   -8.0673 H   0  0  0  0  0  0  0  0  0  0  0  0
   27.6027   10.0764  -10.1703 H   0  0  0  0  0  0  0  0  0  0  0  0
   25.3854   10.7486   -4.2830 H   0  0  0  0  0  0  0  0  0  0  0  0
   26.6669   10.5473   -5.5255 H   0  0  0  0  0  0  0  0  0  0  0  0
   25.6394   12.0207   -5.5255 H   0  0  0  0  0  0  0  0  0  0  0  0
   29.0088    7.0449  -11.8811 H   0  0  0  0  0  0  0  0  0  0  0  0
   31.2215   11.4225  -13.0820 H   0  0  0  0  0  0  0  0  0  0  0  0
   28.5778   11.9006  -13.4028 H   0  0  0  0  0  0  0  0  0  0  0  0
   26.4035    8.9210  -12.3642 H   0  0  0  0  0  0  0  0  0  0  0  0
   26.3919   10.7216  -11.8609 H   0  0  0  0  0  0  0  0  0  0  0  0
   25.1119   10.9200  -13.6633 H   0  0  0  0  0  0  0  0  0  0  0  0
   26.7144   11.0025  -14.4705 H   0  0  0  0  0  0  0  0  0  0  0  0
   25.7869    9.4642  -14.4705 H   0  0  0  0  0  0  0  0  0  0  0  0
   23.7888    9.3720   -4.7868 H   0  0  0  0  0  0  0  0  0  0  0  0
   23.0742    5.2551   -3.8292 H   0  0  0  0  0  0  0  0  0  0  0  0
   21.7178    8.8003   -3.0219 H   0  0  0  0  0  0  0  0  0  0  0  0
   23.7203    7.6955   -1.4967 H   0  0  0  0  0  0  0  0  0  0  0  0
   21.1490    8.5935   -0.7276 H   0  0  0  0  0  0  0  0  0  0  0  0
   20.5354    6.9689   -1.1782 H   0  0  0  0  0  0  0  0  0  0  0  0
   22.5138    7.6149    1.0375 H   0  0  0  0  0  0  0  0  0  0  0  0
   20.7731    7.1502    1.2258 H   0  0  0  0  0  0  0  0  0  0  0  0
   22.1899    5.2133    1.6511 H   0  0  0  0  0  0  0  0  0  0  0  0
   21.2729    4.9679    0.1378 H   0  0  0  0  0  0  0  0  0  0  0  0
   24.1596    5.9927    0.3695 H   0  0  0  0  0  0  0  0  0  0  0  0
   23.6379    4.3487   -0.1836 H   0  0  0  0  0  0  0  0  0  0  0  0
   22.5862    5.2354   -2.1024 H   0  0  0  0  0  0  0  0  0  0  0  0
   24.2810    5.9551   -1.9514 H   0  0  0  0  0  0  0  0  0  0  0  0
  1  7  1  0
  1  2  2  0
  1  5  1  0
  2  3  1  0
  2 20  1  0
  3  4  1  0
  4  8  2  0
  4  6  1  0
  6 10  1  0
  6  7  2  0
  8  9  1  0
  9 12  1  0
  9 10  2  0
 12 13  1  0
 13 17  1  0
 13 14  2  0
 14 15  1  0
 15 16  2  0
 16 17  1  0
 17 18  1  0
 18 19  1  0
 20 22  1  0
 20 21  1  0
 21 23  2  0
 22 24  2  0
 23 24  1  0
 23 25  1  0
 25 26  1  0
 26 31  1  0
 26 27  1  0
 27 28  1  0
 28 29  1  0
 29 30  1  0
 30 31  1  0
  5 11  1  0
  3 32  1  0
  7 33  1  0
 10 34  1  0
 11 35  1  1
 11 36  1  0
 11 37  1  0
 12 38  1  0
 15 39  1  0
 16 40  1  0
 18 41  1  1
 18 42  1  0
 19 43  1  1
 19 44  1  0
 19 45  1  0
 21 46  1  0
 24 47  1  0
 25 48  1  0
 26 49  1  1
 27 50  1  1
 27 51  1  0
 28 52  1  1
 28 53  1  0
 29 54  1  1
 29 55  1  0
 30 56  1  1
 30 57  1  0
 31 58  1  6
 31 59  1  0
M  END
>  <Pose ID>  (2)
20

>  <Score>  (2)
-8.215970039367676

>  <smiles>  (2)
CCn1ccnc1Nc1cc2cc(OC)c(-n3cc(NC4CCCCC4)cn3)[nH]c-2n1

$$$$

     RDKit          3D

 41 44  0  0  0  0  0  0  0  0999 V2000
   25.2070    9.3270   -6.6440 C   0  0  0  0  0  0  0  0  0  0  0  0
   25.0800    7.9560   -6.4230 C   0  0  0  0  0  0  0  0  0  0  0  0
   25.6980    7.0540   -7.2760 N   0  0  0  0  0  0  0  0  0  0  0  0
   26.4470    7.5210   -8.3560 C   0  0  0  0  0  0  0  0  0  0  0  0
   24.7250   10.3430   -5.9830 O   0  0  0  0  0  0  0  0  0  0  0  0
   26.5730    8.8840   -8.5730 C   0  0  0  0  0  0  0  0  0  0  0  0
   25.9570    9.7890   -7.7210 C   0  0  0  0  0  0  0  0  0  0  0  0
   27.1280    6.8510   -9.3020 N   0  0  0  0  0  0  0  0  0  0  0  0
   27.7040    7.7630  -10.1570 C   0  0  0  0  0  0  0  0  0  0  0  0
   27.2610    8.9700   -9.5750 C   0  0  0  0  0  0  0  0  0  0  0  0
   25.6940   10.9790   -5.1570 C   0  0  1  0  0  0  0  0  0  0  0  0
   28.4980    7.7380  -11.2790 N   0  0  0  0  0  0  0  0  0  0  0  0
   28.8890    8.8940  -11.8680 C   0  0  0  0  0  0  0  0  0  0  0  0
   30.2440    9.2570  -12.0520 N   0  0  0  0  0  0  0  0  0  0  0  0
   30.2740   10.5020  -12.6950 C   0  0  0  0  0  0  0  0  0  0  0  0
   28.8850   10.7500  -12.8300 C   0  0  0  0  0  0  0  0  0  0  0  0
   28.0630    9.7900  -12.3470 N   0  0  0  0  0  0  0  0  0  0  0  0
   26.5880    9.8040  -12.4010 C   0  0  1  0  0  0  0  0  0  0  0  0
   24.2720    7.4550   -5.2520 C   0  0  1  0  0  0  0  0  0  0  0  0
   22.8700    7.4220   -5.5760 C   0  0  0  0  0  0  0  0  0  0  0  0
   22.0250    6.3230   -5.6530 N   0  0  0  0  0  0  0  0  0  0  0  0
   22.0950    8.4880   -5.8690 C   0  0  0  0  0  0  0  0  0  0  0  0
   20.8220    8.1490   -6.1360 N   0  0  0  0  0  0  0  0  0  0  0  0
   20.8200    6.6190   -5.9960 C   0  0  0  0  0  0  0  0  0  0  0  0
   25.6041    6.0414   -7.1124 H   0  0  0  0  0  0  0  0  0  0  0  0
   26.0613   10.8699   -7.8966 H   0  0  0  0  0  0  0  0  0  0  0  0
   27.5254    9.9463  -10.0073 H   0  0  0  0  0  0  0  0  0  0  0  0
   25.4405   10.8126   -4.0996 H   0  0  0  0  0  0  0  0  0  0  0  0
   26.6880   10.5571   -5.3665 H   0  0  0  0  0  0  0  0  0  0  0  0
   25.7024   12.0588   -5.3665 H   0  0  0  0  0  0  0  0  0  0  0  0
   28.7974    6.8352  -11.6743 H   0  0  0  0  0  0  0  0  0  0  0  0
   31.1332   11.1140  -13.0069 H   0  0  0  0  0  0  0  0  0  0  0  0
   28.4989   11.6671  -13.2989 H   0  0  0  0  0  0  0  0  0  0  0  0
   26.1837    9.8078  -11.3780 H   0  0  0  0  0  0  0  0  0  0  0  0
   26.2491   10.7054  -12.9326 H   0  0  0  0  0  0  0  0  0  0  0  0
   26.2320    8.9092  -12.9326 H   0  0  0  0  0  0  0  0  0  0  0  0
   24.6060    6.4399   -4.9912 H   0  0  0  0  0  0  0  0  0  0  0  0
   24.4218    8.1372   -4.4022 H   0  0  0  0  0  0  0  0  0  0  0  0
   22.4658    9.5235   -5.8873 H   0  0  0  0  0  0  0  0  0  0  0  0
   20.0348    8.7679   -6.3772 H   0  0  0  0  0  0  0  0  0  0  0  0
   19.9770    5.9302   -6.1537 H   0  0  0  0  0  0  0  0  0  0  0  0
  1  7  1  0
  1  2  2  0
  1  5  1  0
  2  3  1  0
  2 19  1  0
  3  4  1  0
  4  8  2  0
  4  6  1  0
  6 10  1  0
  6  7  2  0
  8  9  1  0
  9 12  1  0
  9 10  2  0
 12 13  1  0
 13 17  1  0
 13 14  2  0
 14 15  1  0
 15 16  2  0
 16 17  1  0
 17 18  1  0
  5 11  1  0
 19 20  1  0
 20 22  2  0
 20 21  1  0
 21 24  2  0
 22 23  1  0
 23 24  1  0
  3 25  1  0
  7 26  1  0
 10 27  1  0
 11 28  1  1
 11 29  1  0
 11 30  1  0
 12 31  1  0
 15 32  1  0
 16 33  1  0
 18 34  1  1
 18 35  1  0
 18 36  1  0
 19 37  1  1
 19 38  1  0
 22 39  1  0
 23 40  1  0
 24 41  1  0
M  END
>  <Pose ID>  (3)
131

>  <Score>  (3)
-8.119760513305664

>  <smiles>  (3)
COc1cc2cc(Nc3nccn3C)nc-2[nH]c1Cc1c[nH]cn1

$$$$

     RDKit          3D

 46 49  0  0  0  0  0  0  0  0999 V2000
   25.2420    9.3880   -6.9510 C   0  0  0  0  0  0  0  0  0  0  0  0
   25.1400    8.0130   -6.7560 C   0  0  0  0  0  0  0  0  0  0  0  0
   25.8100    7.1380   -7.6000 N   0  0  0  0  0  0  0  0  0  0  0  0
   26.5900    7.6370   -8.6400 C   0  0  0  0  0  0  0  0  0  0  0  0
   24.7140   10.3830   -6.2940 O   0  0  0  0  0  0  0  0  0  0  0  0
   26.6970    9.0080   -8.8320 C   0  0  0  0  0  0  0  0  0  0  0  0
   26.0250    9.8830   -7.9900 C   0  0  0  0  0  0  0  0  0  0  0  0
   27.3230    6.9980   -9.5690 N   0  0  0  0  0  0  0  0  0  0  0  0
   27.9140    7.9380  -10.3840 C   0  0  0  0  0  0  0  0  0  0  0  0
   27.4220    9.1250   -9.8030 C   0  0  0  0  0  0  0  0  0  0  0  0
   25.6350   11.0250   -5.4190 C   0  0  1  0  0  0  0  0  0  0  0  0
   28.7510    7.9490  -11.4760 N   0  0  0  0  0  0  0  0  0  0  0  0
   29.1410    9.1210  -12.0270 C   0  0  0  0  0  0  0  0  0  0  0  0
   30.4940    9.5150  -12.1520 N   0  0  0  0  0  0  0  0  0  0  0  0
   30.5230   10.7710  -12.7740 C   0  0  0  0  0  0  0  0  0  0  0  0
   29.1350   10.9910  -12.9610 C   0  0  0  0  0  0  0  0  0  0  0  0
   28.3150   10.0070  -12.5270 N   0  0  0  0  0  0  0  0  0  0  0  0
   26.8440    9.9900  -12.6390 C   0  0  1  0  0  0  0  0  0  0  0  0
   26.1990   10.4030  -13.9640 C   0  0  1  0  0  0  0  0  0  0  0  0
   24.3770    7.5250   -5.7320 N   0  0  0  0  0  0  0  0  0  0  0  0
   24.4210    6.3260   -4.8820 C   0  0  1  0  0  0  0  0  0  0  0  0
   23.6650    8.4760   -4.8340 C   0  0  1  0  0  0  0  0  0  0  0  0
   23.8910    6.5050   -3.5540 C   0  0  1  0  0  0  0  0  0  0  0  0
   22.9470    7.7280   -3.7650 C   0  0  1  0  0  0  0  0  0  0  0  0
   25.7303    6.1211   -7.4572 H   0  0  0  0  0  0  0  0  0  0  0  0
   26.1112   10.9688   -8.1439 H   0  0  0  0  0  0  0  0  0  0  0  0
   27.6820   10.1136  -10.2094 H   0  0  0  0  0  0  0  0  0  0  0  0
   25.3492   10.8258   -4.3756 H   0  0  0  0  0  0  0  0  0  0  0  0
   26.6474   10.6359   -5.6026 H   0  0  0  0  0  0  0  0  0  0  0  0
   25.6202   12.1095   -5.6026 H   0  0  0  0  0  0  0  0  0  0  0  0
   29.0824    7.0596  -11.8761 H   0  0  0  0  0  0  0  0  0  0  0  0
   31.3803   11.4062  -13.0414 H   0  0  0  0  0  0  0  0  0  0  0  0
   28.7482   11.9072  -13.4310 H   0  0  0  0  0  0  0  0  0  0  0  0
   26.5158    8.9618  -12.4267 H   0  0  0  0  0  0  0  0  0  0  0  0
   26.5151   10.7650  -11.9310 H   0  0  0  0  0  0  0  0  0  0  0  0
   25.2883   10.9861  -13.7624 H   0  0  0  0  0  0  0  0  0  0  0  0
   26.9069   11.0162  -14.5410 H   0  0  0  0  0  0  0  0  0  0  0  0
   25.9382    9.5035  -14.5410 H   0  0  0  0  0  0  0  0  0  0  0  0
   23.8406    5.5339   -5.3778 H   0  0  0  0  0  0  0  0  0  0  0  0
   25.4845    6.0736   -4.7587 H   0  0  0  0  0  0  0  0  0  0  0  0
   24.3950    9.1581   -4.3737 H   0  0  0  0  0  0  0  0  0  0  0  0
   22.9360    9.0516   -5.4234 H   0  0  0  0  0  0  0  0  0  0  0  0
   23.3326    5.6180   -3.2202 H   0  0  0  0  0  0  0  0  0  0  0  0
   24.6573    6.6554   -2.7793 H   0  0  0  0  0  0  0  0  0  0  0  0
   22.8550    8.3276   -2.8474 H   0  0  0  0  0  0  0  0  0  0  0  0
   21.9129    7.4570   -4.0242 H   0  0  0  0  0  0  0  0  0  0  0  0
  1  7  1  0
  1  2  2  0
  1  5  1  0
  2  3  1  0
  2 20  1  0
  3  4  1  0
  4  8  2  0
  4  6  1  0
  6 10  1  0
  6  7  2  0
  8  9  1  0
  9 12  1  0
  9 10  2  0
 12 13  1  0
 13 17  1  0
 13 14  2  0
 14 15  1  0
 15 16  2  0
 16 17  1  0
 17 18  1  0
 18 19  1  0
 20 21  1  0
 20 22  1  0
 21 23  1  0
 22 24  1  0
 23 24  1  0
  5 11  1  0
  3 25  1  0
  7 26  1  0
 10 27  1  0
 11 28  1  1
 11 29  1  0
 11 30  1  0
 12 31  1  0
 15 32  1  0
 16 33  1  0
 18 34  1  1
 18 35  1  0
 19 36  1  1
 19 37  1  0
 19 38  1  0
 21 39  1  6
 21 40  1  0
 22 41  1  1
 22 42  1  0
 23 43  1  1
 23 44  1  0
 24 45  1  1
 24 46  1  0
M  END
>  <Pose ID>  (4)
15

>  <Score>  (4)
-8.083531379699707

>  <smiles>  (4)
CCn1ccnc1Nc1cc2cc(OC)c(N3CCCC3)[nH]c-2n1

$$$$

     RDKit          3D

 53 57  0  0  0  0  0  0  0  0999 V2000
   25.1900    9.3090   -6.9410 C   0  0  0  0  0  0  0  0  0  0  0  0
   25.0990    7.9330   -6.7530 C   0  0  0  0  0  0  0  0  0  0  0  0
   25.7790    7.0690   -7.6010 N   0  0  0  0  0  0  0  0  0  0  0  0
   26.5570    7.5780   -8.6360 C   0  0  0  0  0  0  0  0  0  0  0  0
   24.6510   10.2960   -6.2810 O   0  0  0  0  0  0  0  0  0  0  0  0
   26.6500    8.9510   -8.8220 C   0  0  0  0  0  0  0  0  0  0  0  0
   25.9690    9.8170   -7.9760 C   0  0  0  0  0  0  0  0  0  0  0  0
   27.2960    6.9520   -9.5680 N   0  0  0  0  0  0  0  0  0  0  0  0
   27.8810    7.9010  -10.3770 C   0  0  0  0  0  0  0  0  0  0  0  0
   27.3760    9.0810   -9.7910 C   0  0  0  0  0  0  0  0  0  0  0  0
   25.5630   10.9440   -5.4020 C   0  0  1  0  0  0  0  0  0  0  0  0
   28.7190    7.9240  -11.4650 N   0  0  0  0  0  0  0  0  0  0  0  0
   29.1000    9.1050  -12.0120 C   0  0  0  0  0  0  0  0  0  0  0  0
   30.4510    9.5110  -12.1330 N   0  0  0  0  0  0  0  0  0  0  0  0
   30.4670   10.7680  -12.7480 C   0  0  0  0  0  0  0  0  0  0  0  0
   29.0780   10.9790  -12.9340 C   0  0  0  0  0  0  0  0  0  0  0  0
   28.2660    9.9870  -12.5080 N   0  0  0  0  0  0  0  0  0  0  0  0
   26.7960    9.9550  -12.6230 C   0  0  1  0  0  0  0  0  0  0  0  0
   26.1490   10.3690  -13.9460 C   0  0  1  0  0  0  0  0  0  0  0  0
   24.3370    7.4330   -5.7330 N   0  0  0  0  0  0  0  0  0  0  0  0
   23.6690    8.2830   -4.8970 C   0  0  0  0  0  0  0  0  0  0  0  0
   24.1320    6.2590   -5.4650 N   0  0  0  0  0  0  0  0  0  0  0  0
   23.0030    7.4660   -4.0590 C   0  0  0  0  0  0  0  0  0  0  0  0
   23.3050    6.1900   -4.4340 C   0  0  0  0  0  0  0  0  0  0  0  0
   22.2230    8.0350   -3.0820 N   0  0  0  0  0  0  0  0  0  0  0  0
   21.9050    9.4160   -2.9240 C   0  0  2  0  0  0  0  0  0  0  0  0
   20.4680    9.6240   -2.5820 C   0  0  1  0  0  0  0  0  0  0  0  0
   20.4130   10.7660   -3.6320 C   0  0  1  0  0  0  0  0  0  0  0  0
   21.7200   10.2220   -4.1280 C   0  0  1  0  0  0  0  0  0  0  0  0
   25.7074    6.0507   -7.4637 H   0  0  0  0  0  0  0  0  0  0  0  0
   26.0455   10.9043   -8.1242 H   0  0  0  0  0  0  0  0  0  0  0  0
   27.6269   10.0742  -10.1916 H   0  0  0  0  0  0  0  0  0  0  0  0
   25.2757   10.7399   -4.3600 H   0  0  0  0  0  0  0  0  0  0  0  0
   26.5794   10.5644   -5.5832 H   0  0  0  0  0  0  0  0  0  0  0  0
   25.5390   12.0287   -5.5832 H   0  0  0  0  0  0  0  0  0  0  0  0
   29.0599    7.0394  -11.8677 H   0  0  0  0  0  0  0  0  0  0  0  0
   31.3188   11.4117  -13.0128 H   0  0  0  0  0  0  0  0  0  0  0  0
   28.6846   11.8957  -13.3975 H   0  0  0  0  0  0  0  0  0  0  0  0
   26.4785    8.9220  -12.4176 H   0  0  0  0  0  0  0  0  0  0  0  0
   26.4577   10.7223  -11.9110 H   0  0  0  0  0  0  0  0  0  0  0  0
   25.2385   10.9516  -13.7424 H   0  0  0  0  0  0  0  0  0  0  0  0
   26.8557   10.9831  -14.5235 H   0  0  0  0  0  0  0  0  0  0  0  0
   25.8876    9.4700  -14.5235 H   0  0  0  0  0  0  0  0  0  0  0  0
   23.6742    9.3829   -4.9065 H   0  0  0  0  0  0  0  0  0  0  0  0
   22.9289    5.2692   -3.9641 H   0  0  0  0  0  0  0  0  0  0  0  0
   21.8225    7.3914   -2.3847 H   0  0  0  0  0  0  0  0  0  0  0  0
   22.7330    9.6808   -2.2499 H   0  0  0  0  0  0  0  0  0  0  0  0
   19.8188    8.7660   -2.8111 H   0  0  0  0  0  0  0  0  0  0  0  0
   20.1527    9.7955   -1.5422 H   0  0  0  0  0  0  0  0  0  0  0  0
   19.5801   10.7006   -4.3475 H   0  0  0  0  0  0  0  0  0  0  0  0
   20.2767   11.8216   -3.3542 H   0  0  0  0  0  0  0  0  0  0  0  0
   22.4936   10.9918   -4.2659 H   0  0  0  0  0  0  0  0  0  0  0  0
   21.7596    9.7336   -5.1128 H   0  0  0  0  0  0  0  0  0  0  0  0
  1  7  1  0
  1  2  2  0
  1  5  1  0
  2  3  1  0
  2 20  1  0
  3  4  1  0
  4  8  2  0
  4  6  1  0
  6 10  1  0
  6  7  2  0
  8  9  1  0
  9 12  1  0
  9 10  2  0
 12 13  1  0
 13 17  1  0
 13 14  2  0
 14 15  1  0
 15 16  2  0
 16 17  1  0
 17 18  1  0
 18 19  1  0
 20 22  1  0
 20 21  1  0
 21 23  2  0
 22 24  2  0
 23 24  1  0
 23 25  1  0
 25 26  1  0
 26 29  1  0
 26 27  1  0
 27 28  1  0
 28 29  1  0
  5 11  1  0
  3 30  1  0
  7 31  1  0
 10 32  1  0
 11 33  1  1
 11 34  1  0
 11 35  1  0
 12 36  1  0
 15 37  1  0
 16 38  1  0
 18 39  1  1
 18 40  1  0
 19 41  1  1
 19 42  1  0
 19 43  1  0
 21 44  1  0
 24 45  1  0
 25 46  1  0
 26 47  1  1
 27 48  1  6
 27 49  1  0
 28 50  1  6
 28 51  1  0
 29 52  1  6
 29 53  1  0
M  END
>  <Pose ID>  (5)
19

>  <Score>  (5)
-8.056983947753906

>  <smiles>  (5)
CCn1ccnc1Nc1cc2cc(OC)c(-n3cc(NC4CCC4)cn3)[nH]c-2n1

$$$$

     RDKit          3D

 45 48  0  0  0  0  0  0  0  0999 V2000
   25.1060    9.3310   -6.8150 C   0  0  0  0  0  0  0  0  0  0  0  0
   24.8930    7.9720   -6.6040 C   0  0  0  0  0  0  0  0  0  0  0  0
   25.5140    7.0350   -7.4200 N   0  0  0  0  0  0  0  0  0  0  0  0
   26.3540    7.4590   -8.4490 C   0  0  0  0  0  0  0  0  0  0  0  0
   24.6390   10.3720   -6.1810 O   0  0  0  0  0  0  0  0  0  0  0  0
   26.5660    8.8140   -8.6550 C   0  0  0  0  0  0  0  0  0  0  0  0
   25.9460    9.7510   -7.8420 C   0  0  0  0  0  0  0  0  0  0  0  0
   27.0540    6.7530   -9.3540 N   0  0  0  0  0  0  0  0  0  0  0  0
   27.7330    7.6310  -10.1690 C   0  0  0  0  0  0  0  0  0  0  0  0
   27.3210    8.8630   -9.6120 C   0  0  0  0  0  0  0  0  0  0  0  0
   25.5880   10.9560   -5.2960 C   0  0  1  0  0  0  0  0  0  0  0  0
   28.5930    7.5620  -11.2370 N   0  0  0  0  0  0  0  0  0  0  0  0
   29.0810    8.6940  -11.7980 C   0  0  0  0  0  0  0  0  0  0  0  0
   30.4640    8.9840  -11.8960 N   0  0  0  0  0  0  0  0  0  0  0  0
   30.6000   10.2240  -12.5340 C   0  0  0  0  0  0  0  0  0  0  0  0
   29.2370   10.5480  -12.7530 C   0  0  0  0  0  0  0  0  0  0  0  0
   28.3360    9.6350  -12.3270 N   0  0  0  0  0  0  0  0  0  0  0  0
   26.8700    9.7250  -12.4720 C   0  0  1  0  0  0  0  0  0  0  0  0
   24.0450    7.5240   -5.5120 C   0  0  0  0  0  0  0  0  0  0  0  0
   22.7280    7.9660   -5.5200 C   0  0  0  0  0  0  0  0  0  0  0  0
   21.8420    7.5320   -4.5400 N   0  0  0  0  0  0  0  0  0  0  0  0
   22.2740    6.6550   -3.5530 C   0  0  0  0  0  0  0  0  0  0  0  0
   23.5920    6.2130   -3.5440 C   0  0  0  0  0  0  0  0  0  0  0  0
   24.4710    6.6530   -4.5480 C   0  0  0  0  0  0  0  0  0  0  0  0
   22.3420    8.7540   -6.4020 O   0  0  0  0  0  0  0  0  0  0  0  0
   20.4050    7.9410   -4.4450 C   0  0  1  0  0  0  0  0  0  0  0  0
   24.0270    5.3620   -2.5710 O   0  0  0  0  0  0  0  0  0  0  0  0
   25.3543    6.0293   -7.2653 H   0  0  0  0  0  0  0  0  0  0  0  0
   26.1179   10.8246   -8.0087 H   0  0  0  0  0  0  0  0  0  0  0  0
   27.6658    9.8233  -10.0231 H   0  0  0  0  0  0  0  0  0  0  0  0
   25.2832   10.7684   -4.2558 H   0  0  0  0  0  0  0  0  0  0  0  0
   26.5779   10.5106   -5.4740 H   0  0  0  0  0  0  0  0  0  0  0  0
   25.6365   12.0404   -5.4740 H   0  0  0  0  0  0  0  0  0  0  0  0
   28.8687    6.6439  -11.6138 H   0  0  0  0  0  0  0  0  0  0  0  0
   31.5086   10.7877  -12.7923 H   0  0  0  0  0  0  0  0  0  0  0  0
   28.9314   11.4857  -13.2401 H   0  0  0  0  0  0  0  0  0  0  0  0
   26.4041    9.7536  -11.4759 H   0  0  0  0  0  0  0  0  0  0  0  0
   26.6117   10.6407  -13.0241 H   0  0  0  0  0  0  0  0  0  0  0  0
   26.5016    8.8478  -13.0241 H   0  0  0  0  0  0  0  0  0  0  0  0
   21.5731    6.3103   -2.7785 H   0  0  0  0  0  0  0  0  0  0  0  0
   25.5106    6.2937   -4.5585 H   0  0  0  0  0  0  0  0  0  0  0  0
   20.1164    8.0232   -3.3867 H   0  0  0  0  0  0  0  0  0  0  0  0
   20.2673    8.9140   -4.9392 H   0  0  0  0  0  0  0  0  0  0  0  0
   19.7755    7.1863   -4.9392 H   0  0  0  0  0  0  0  0  0  0  0  0
   24.9667    5.0506   -2.5697 H   0  0  0  0  0  0  0  0  0  0  0  0
  1  7  1  0
  1  2  2  0
  1  5  1  0
  2  3  1  0
  2 19  1  0
  3  4  1  0
  4  8  2  0
  4  6  1  0
  6 10  1  0
  6  7  2  0
  8  9  1  0
  9 12  1  0
  9 10  2  0
 12 13  1  0
 13 17  1  0
 13 14  2  0
 14 15  1  0
 15 16  2  0
 16 17  1  0
 17 18  1  0
 19 20  1  0
 19 24  2  0
 20 25  2  0
 20 21  1  0
 21 26  1  0
 21 22  1  0
 22 23  2  0
 23 24  1  0
 23 27  1  0
  5 11  1  0
  3 28  1  0
  7 29  1  0
 10 30  1  0
 11 31  1  1
 11 32  1  0
 11 33  1  0
 12 34  1  0
 15 35  1  0
 16 36  1  0
 18 37  1  1
 18 38  1  0
 18 39  1  0
 22 40  1  0
 24 41  1  0
 26 42  1  1
 26 43  1  0
 26 44  1  0
 27 45  1  0
M  END
>  <Pose ID>  (6)
21

>  <Score>  (6)
-8.040586471557617

>  <smiles>  (6)
COc1cc2cc(Nc3nccn3C)nc-2[nH]c1-c1cc(O)cn(C)c1=O

$$$$

     RDKit          3D

 42 45  0  0  0  0  0  0  0  0999 V2000
   25.2870    9.4660   -6.8960 C   0  0  0  0  0  0  0  0  0  0  0  0
   25.1650    8.0960   -6.6860 C   0  0  0  0  0  0  0  0  0  0  0  0
   25.8150    7.2010   -7.5250 N   0  0  0  0  0  0  0  0  0  0  0  0
   26.5940    7.6790   -8.5780 C   0  0  0  0  0  0  0  0  0  0  0  0
   24.7780   10.4770   -6.2470 O   0  0  0  0  0  0  0  0  0  0  0  0
   26.7180    9.0450   -8.7860 C   0  0  0  0  0  0  0  0  0  0  0  0
   26.0660    9.9400   -7.9490 C   0  0  0  0  0  0  0  0  0  0  0  0
   27.3100    7.0170   -9.5080 N   0  0  0  0  0  0  0  0  0  0  0  0
   27.9040    7.9400  -10.3380 C   0  0  0  0  0  0  0  0  0  0  0  0
   27.4360    9.1400   -9.7670 C   0  0  0  0  0  0  0  0  0  0  0  0
   25.7170   11.1170   -5.3890 C   0  0  1  0  0  0  0  0  0  0  0  0
   28.7330    7.9250  -11.4360 N   0  0  0  0  0  0  0  0  0  0  0  0
   29.1340    9.0870  -12.0060 C   0  0  0  0  0  0  0  0  0  0  0  0
   30.4920    9.4600  -12.1480 N   0  0  0  0  0  0  0  0  0  0  0  0
   30.5320   10.7080  -12.7840 C   0  0  0  0  0  0  0  0  0  0  0  0
   29.1450   10.9460  -12.9600 C   0  0  0  0  0  0  0  0  0  0  0  0
   28.3160    9.9780  -12.5080 N   0  0  0  0  0  0  0  0  0  0  0  0
   26.8440    9.9810  -12.6060 C   0  0  1  0  0  0  0  0  0  0  0  0
   26.1910   10.3880  -13.9290 C   0  0  1  0  0  0  0  0  0  0  0  0
   24.3620    7.8820   -5.6010 N   0  0  0  0  0  0  0  0  0  0  0  0
   23.6860    8.6860   -4.7240 C   0  0  0  0  0  0  0  0  0  0  0  0
   24.1250    6.5680   -5.2490 C   0  0  0  0  0  0  0  0  0  0  0  0
   23.3100    6.7320   -4.1280 C   0  0  0  0  0  0  0  0  0  0  0  0
   23.0430    7.9700   -3.8960 C   0  0  0  0  0  0  0  0  0  0  0  0
   25.7221    6.1870   -7.3701 H   0  0  0  0  0  0  0  0  0  0  0  0
   26.1644   11.0226   -8.1171 H   0  0  0  0  0  0  0  0  0  0  0  0
   27.7065   10.1197  -10.1877 H   0  0  0  0  0  0  0  0  0  0  0  0
   25.4424   10.9298   -4.3404 H   0  0  0  0  0  0  0  0  0  0  0  0
   26.7228   10.7156   -5.5819 H   0  0  0  0  0  0  0  0  0  0  0  0
   25.7112   12.1999   -5.5819 H   0  0  0  0  0  0  0  0  0  0  0  0
   29.0503    7.0262  -11.8265 H   0  0  0  0  0  0  0  0  0  0  0  0
   31.3954   11.3280  -13.0669 H   0  0  0  0  0  0  0  0  0  0  0  0
   28.7664   11.8628  -13.4355 H   0  0  0  0  0  0  0  0  0  0  0  0
   26.5034    8.9601  -12.3787 H   0  0  0  0  0  0  0  0  0  0  0  0
   26.5337   10.7692  -11.9043 H   0  0  0  0  0  0  0  0  0  0  0  0
   25.2737   10.9597  -13.7246 H   0  0  0  0  0  0  0  0  0  0  0  0
   26.8900   11.0106  -14.5067 H   0  0  0  0  0  0  0  0  0  0  0  0
   25.9399    9.4862  -14.5067 H   0  0  0  0  0  0  0  0  0  0  0  0
   23.6979    9.7859   -4.7348 H   0  0  0  0  0  0  0  0  0  0  0  0
   24.4821    5.6422   -5.7238 H   0  0  0  0  0  0  0  0  0  0  0  0
   22.9383    5.8991   -3.5131 H   0  0  0  0  0  0  0  0  0  0  0  0
   22.3698    8.3449   -3.1110 H   0  0  0  0  0  0  0  0  0  0  0  0
  1  7  1  0
  1  2  2  0
  1  5  1  0
  2  3  1  0
  2 20  1  0
  3  4  1  0
  4  8  2  0
  4  6  1  0
  6 10  1  0
  6  7  2  0
  8  9  1  0
  9 12  1  0
  9 10  2  0
 12 13  1  0
 13 17  1  0
 13 14  2  0
 14 15  1  0
 15 16  2  0
 16 17  1  0
 17 18  1  0
 18 19  1  0
 20 22  1  0
 20 21  1  0
 21 24  2  0
 22 23  2  0
 23 24  1  0
  5 11  1  0
  3 25  1  0
  7 26  1  0
 10 27  1  0
 11 28  1  1
 11 29  1  0
 11 30  1  0
 12 31  1  0
 15 32  1  0
 16 33  1  0
 18 34  1  1
 18 35  1  0
 19 36  1  1
 19 37  1  0
 19 38  1  0
 21 39  1  0
 22 40  1  0
 23 41  1  0
 24 42  1  0
M  END
>  <Pose ID>  (7)
14

>  <Score>  (7)
-7.99127721786499

>  <smiles>  (7)
CCn1ccnc1Nc1cc2cc(OC)c(-n3cccc3)[nH]c-2n1

$$$$

     RDKit          3D

 43 46  0  0  0  0  0  0  0  0999 V2000
   25.1530    9.4440   -6.8210 C   0  0  0  0  0  0  0  0  0  0  0  0
   24.9860    8.0830   -6.5770 C   0  0  0  0  0  0  0  0  0  0  0  0
   25.6200    7.1480   -7.3820 N   0  0  0  0  0  0  0  0  0  0  0  0
   26.4280    7.5700   -8.4330 C   0  0  0  0  0  0  0  0  0  0  0  0
   24.6670   10.4850   -6.2040 O   0  0  0  0  0  0  0  0  0  0  0  0
   26.5980    8.9250   -8.6750 C   0  0  0  0  0  0  0  0  0  0  0  0
   25.9630    9.8630   -7.8720 C   0  0  0  0  0  0  0  0  0  0  0  0
   27.1370    6.8650   -9.3350 N   0  0  0  0  0  0  0  0  0  0  0  0
   27.7750    7.7460  -10.1800 C   0  0  0  0  0  0  0  0  0  0  0  0
   27.3340    8.9750   -9.6450 C   0  0  0  0  0  0  0  0  0  0  0  0
   25.6130   11.1150   -5.3490 C   0  0  1  0  0  0  0  0  0  0  0  0
   28.6180    7.6760  -11.2630 N   0  0  0  0  0  0  0  0  0  0  0  0
   29.0640    8.8090  -11.8550 C   0  0  0  0  0  0  0  0  0  0  0  0
   30.4340    9.1360  -11.9860 N   0  0  0  0  0  0  0  0  0  0  0  0
   30.5230   10.3660  -12.6520 C   0  0  0  0  0  0  0  0  0  0  0  0
   29.1490   10.6420  -12.8550 C   0  0  0  0  0  0  0  0  0  0  0  0
   28.2820    9.7130  -12.3930 N   0  0  0  0  0  0  0  0  0  0  0  0
   26.8120    9.7590  -12.5150 C   0  0  1  0  0  0  0  0  0  0  0  0
   24.2100    7.6620   -5.5720 C   0  0  0  0  0  0  0  0  0  0  0  0
   24.2540    6.2740   -5.5580 N   0  0  0  0  0  0  0  0  0  0  0  0
   23.6000    8.3500   -4.5290 C   0  0  0  0  0  0  0  0  0  0  0  0
   23.0350    7.6490   -3.4710 C   0  0  0  0  0  0  0  0  0  0  0  0
   23.0790    6.2600   -3.4560 C   0  0  0  0  0  0  0  0  0  0  0  0
   23.7030    5.5920   -4.4170 C   0  0  0  0  0  0  0  0  0  0  0  0
   22.4080    5.5040   -2.3350 C   0  0  1  0  0  0  0  0  0  0  0  0
   25.4926    6.1419   -7.2017 H   0  0  0  0  0  0  0  0  0  0  0  0
   26.1002   10.9369   -8.0666 H   0  0  0  0  0  0  0  0  0  0  0  0
   27.6410    9.9357  -10.0841 H   0  0  0  0  0  0  0  0  0  0  0  0
   25.3380   10.9318   -4.2998 H   0  0  0  0  0  0  0  0  0  0  0  0
   26.6142   10.7027   -5.5430 H   0  0  0  0  0  0  0  0  0  0  0  0
   25.6185   12.1978   -5.5430 H   0  0  0  0  0  0  0  0  0  0  0  0
   28.9117    6.7579  -11.6258 H   0  0  0  0  0  0  0  0  0  0  0  0
   31.4097   10.9515  -12.9366 H   0  0  0  0  0  0  0  0  0  0  0  0
   28.8072   11.5581  -13.3588 H   0  0  0  0  0  0  0  0  0  0  0  0
   26.3611    9.7731  -11.5118 H   0  0  0  0  0  0  0  0  0  0  0  0
   26.5177   10.6668  -13.0621 H   0  0  0  0  0  0  0  0  0  0  0  0
   26.4615    8.8714  -13.0621 H   0  0  0  0  0  0  0  0  0  0  0  0
   23.5648    9.4494   -4.5416 H   0  0  0  0  0  0  0  0  0  0  0  0
   22.5530    8.1931   -2.6454 H   0  0  0  0  0  0  0  0  0  0  0  0
   23.8009    4.4990   -4.3406 H   0  0  0  0  0  0  0  0  0  0  0  0
   22.7563    5.8964   -1.3682 H   0  0  0  0  0  0  0  0  0  0  0  0
   21.3176    5.6285   -2.4099 H   0  0  0  0  0  0  0  0  0  0  0  0
   22.6611    4.4361   -2.4099 H   0  0  0  0  0  0  0  0  0  0  0  0
  1  7  1  0
  1  2  2  0
  1  5  1  0
  2  3  1  0
  2 19  1  0
  3  4  1  0
  4  8  2  0
  4  6  1  0
  6 10  1  0
  6  7  2  0
  8  9  1  0
  9 12  1  0
  9 10  2  0
 12 13  1  0
 13 17  1  0
 13 14  2  0
 14 15  1  0
 15 16  2  0
 16 17  1  0
 17 18  1  0
 19 20  2  0
 19 21  1  0
 20 24  1  0
 21 22  2  0
 22 23  1  0
 23 24  2  0
 23 25  1  0
  5 11  1  0
  3 26  1  0
  7 27  1  0
 10 28  1  0
 11 29  1  1
 11 30  1  0
 11 31  1  0
 12 32  1  0
 15 33  1  0
 16 34  1  0
 18 35  1  1
 18 36  1  0
 18 37  1  0
 21 38  1  0
 22 39  1  0
 24 40  1  0
 25 41  1  1
 25 42  1  0
 25 43  1  0
M  END
>  <Pose ID>  (8)
30

>  <Score>  (8)
-7.967043399810791

>  <smiles>  (8)
COc1cc2cc(Nc3nccn3C)nc-2[nH]c1-c1ccc(C)cn1

$$$$

     RDKit          3D

 44 47  0  0  0  0  0  0  0  0999 V2000
   25.0860    9.3610   -6.7890 C   0  0  0  0  0  0  0  0  0  0  0  0
   24.8670    8.0060   -6.5580 C   0  0  0  0  0  0  0  0  0  0  0  0
   25.4850    7.0540   -7.3590 N   0  0  0  0  0  0  0  0  0  0  0  0
   26.3280    7.4590   -8.3920 C   0  0  0  0  0  0  0  0  0  0  0  0
   24.6230   10.4130   -6.1710 O   0  0  0  0  0  0  0  0  0  0  0  0
   26.5470    8.8100   -8.6190 C   0  0  0  0  0  0  0  0  0  0  0  0
   25.9300    9.7620   -7.8200 C   0  0  0  0  0  0  0  0  0  0  0  0
   27.0270    6.7360   -9.2850 N   0  0  0  0  0  0  0  0  0  0  0  0
   27.7110    7.5990  -10.1120 C   0  0  0  0  0  0  0  0  0  0  0  0
   27.3040    8.8410   -9.5750 C   0  0  0  0  0  0  0  0  0  0  0  0
   25.5750   11.0060   -5.2940 C   0  0  1  0  0  0  0  0  0  0  0  0
   28.5720    7.5090  -11.1780 N   0  0  0  0  0  0  0  0  0  0  0  0
   29.0660    8.6310  -11.7550 C   0  0  0  0  0  0  0  0  0  0  0  0
   30.4510    8.9130  -11.8550 N   0  0  0  0  0  0  0  0  0  0  0  0
   30.5930   10.1420  -12.5110 C   0  0  0  0  0  0  0  0  0  0  0  0
   29.2330   10.4690  -12.7380 C   0  0  0  0  0  0  0  0  0  0  0  0
   28.3270    9.5680  -12.2990 N   0  0  0  0  0  0  0  0  0  0  0  0
   26.8610    9.6620  -12.4480 C   0  0  1  0  0  0  0  0  0  0  0  0
   24.0150    7.5790   -5.4610 C   0  0  0  0  0  0  0  0  0  0  0  0
   22.7000    8.0270   -5.4770 C   0  0  0  0  0  0  0  0  0  0  0  0
   21.8110    7.6120   -4.4920 N   0  0  0  0  0  0  0  0  0  0  0  0
   22.2370    6.7480   -3.4920 C   0  0  0  0  0  0  0  0  0  0  0  0
   23.5530    6.3000   -3.4730 C   0  0  0  0  0  0  0  0  0  0  0  0
   24.4360    6.7210   -4.4820 C   0  0  0  0  0  0  0  0  0  0  0  0
   22.3190    8.8030   -6.3720 O   0  0  0  0  0  0  0  0  0  0  0  0
   20.3750    8.0290   -4.4050 C   0  0  1  0  0  0  0  0  0  0  0  0
   24.1160    5.1990   -2.1800 Cl  0  0  0  0  0  0  0  0  0  0  0  0
   25.3205    6.0514   -7.1898 H   0  0  0  0  0  0  0  0  0  0  0  0
   26.1079   10.8323   -8.0014 H   0  0  0  0  0  0  0  0  0  0  0  0
   27.6541    9.7932  -10.0000 H   0  0  0  0  0  0  0  0  0  0  0  0
   25.2779   10.8210   -4.2512 H   0  0  0  0  0  0  0  0  0  0  0  0
   26.5662   10.5653   -5.4766 H   0  0  0  0  0  0  0  0  0  0  0  0
   25.6164   12.0899   -5.4766 H   0  0  0  0  0  0  0  0  0  0  0  0
   28.8436    6.5840  -11.5407 H   0  0  0  0  0  0  0  0  0  0  0  0
   31.5046   10.6977  -12.7758 H   0  0  0  0  0  0  0  0  0  0  0  0
   28.9331   11.4001  -13.2412 H   0  0  0  0  0  0  0  0  0  0  0  0
   26.3925    9.6920  -11.4532 H   0  0  0  0  0  0  0  0  0  0  0  0
   26.6066   10.5783  -13.0009 H   0  0  0  0  0  0  0  0  0  0  0  0
   26.4917    8.7857  -13.0009 H   0  0  0  0  0  0  0  0  0  0  0  0
   21.5327    6.4177   -2.7142 H   0  0  0  0  0  0  0  0  0  0  0  0
   25.4743    6.3577   -4.4847 H   0  0  0  0  0  0  0  0  0  0  0  0
   20.0813    8.1143   -3.3484 H   0  0  0  0  0  0  0  0  0  0  0  0
   20.2450    9.0020   -4.9014 H   0  0  0  0  0  0  0  0  0  0  0  0
   19.7441    7.2770   -4.9014 H   0  0  0  0  0  0  0  0  0  0  0  0
  1  7  1  0
  1  2  2  0
  1  5  1  0
  2  3  1  0
  2 19  1  0
  3  4  1  0
  4  8  2  0
  4  6  1  0
  6 10  1  0
  6  7  2  0
  8  9  1  0
  9 12  1  0
  9 10  2  0
 19 20  1  0
 19 24  2  0
 20 25  2  0
 20 21  1  0
 21 26  1  0
 21 22  1  0
 22 23  2  0
 23 24  1  0
 23 27  1  0
 12 13  1  0
 13 17  1  0
 13 14  2  0
 14 15  1  0
 15 16  2  0
 16 17  1  0
 17 18  1  0
  5 11  1  0
  3 28  1  0
  7 29  1  0
 10 30  1  0
 11 31  1  1
 11 32  1  0
 11 33  1  0
 12 34  1  0
 15 35  1  0
 16 36  1  0
 18 37  1  1
 18 38  1  0
 18 39  1  0
 22 40  1  0
 24 41  1  0
 26 42  1  1
 26 43  1  0
 26 44  1  0
M  END
>  <Pose ID>  (9)
22

>  <Score>  (9)
-7.965009689331055

>  <smiles>  (9)
COc1cc2cc(Nc3nccn3C)nc-2[nH]c1-c1cc(Cl)cn(C)c1=O

$$$$

     RDKit          3D

 43 46  0  0  0  0  0  0  0  0999 V2000
   25.1660    9.4190   -6.8280 C   0  0  0  0  0  0  0  0  0  0  0  0
   24.9950    8.0580   -6.5920 C   0  0  0  0  0  0  0  0  0  0  0  0
   25.6280    7.1250   -7.4030 N   0  0  0  0  0  0  0  0  0  0  0  0
   26.4360    7.5550   -8.4530 C   0  0  0  0  0  0  0  0  0  0  0  0
   24.6830   10.4580   -6.2030 O   0  0  0  0  0  0  0  0  0  0  0  0
   26.6090    8.9110   -8.6870 C   0  0  0  0  0  0  0  0  0  0  0  0
   25.9760    9.8460   -7.8770 C   0  0  0  0  0  0  0  0  0  0  0  0
   27.1420    6.8550   -9.3590 N   0  0  0  0  0  0  0  0  0  0  0  0
   27.7810    7.7390  -10.1980 C   0  0  0  0  0  0  0  0  0  0  0  0
   27.3430    8.9660   -9.6560 C   0  0  0  0  0  0  0  0  0  0  0  0
   25.6300   11.0810   -5.3450 C   0  0  1  0  0  0  0  0  0  0  0  0
   28.6230    7.6740  -11.2830 N   0  0  0  0  0  0  0  0  0  0  0  0
   29.0700    8.8100  -11.8690 C   0  0  0  0  0  0  0  0  0  0  0  0
   30.4420    9.1350  -11.9980 N   0  0  0  0  0  0  0  0  0  0  0  0
   30.5330   10.3710  -12.6550 C   0  0  0  0  0  0  0  0  0  0  0  0
   29.1580   10.6510  -12.8580 C   0  0  0  0  0  0  0  0  0  0  0  0
   28.2900    9.7200  -12.4000 N   0  0  0  0  0  0  0  0  0  0  0  0
   26.8200    9.7690  -12.5200 C   0  0  1  0  0  0  0  0  0  0  0  0
   24.1930    7.6190   -5.5450 C   0  0  0  0  0  0  0  0  0  0  0  0
   24.2550    6.2340   -5.4640 N   0  0  0  0  0  0  0  0  0  0  0  0
   23.5810    8.3490   -4.5320 C   0  0  0  0  0  0  0  0  0  0  0  0
   23.0310    7.6910   -3.4380 N   0  0  0  0  0  0  0  0  0  0  0  0
   23.0930    6.3050   -3.3570 C   0  0  0  0  0  0  0  0  0  0  0  0
   23.6910    5.5810   -4.3500 C   0  0  0  0  0  0  0  0  0  0  0  0
   23.5260    9.5900   -4.6050 O   0  0  0  0  0  0  0  0  0  0  0  0
   22.4970    5.5960   -2.1660 C   0  0  1  0  0  0  0  0  0  0  0  0
   25.5003    6.1179   -7.2285 H   0  0  0  0  0  0  0  0  0  0  0  0
   26.1145   10.9211   -8.0641 H   0  0  0  0  0  0  0  0  0  0  0  0
   27.6511    9.9287  -10.0898 H   0  0  0  0  0  0  0  0  0  0  0  0
   25.3513   10.8977   -4.2968 H   0  0  0  0  0  0  0  0  0  0  0  0
   26.6293   10.6633   -5.5372 H   0  0  0  0  0  0  0  0  0  0  0  0
   25.6421   12.1640   -5.5372 H   0  0  0  0  0  0  0  0  0  0  0  0
   28.9149    6.7576  -11.6516 H   0  0  0  0  0  0  0  0  0  0  0  0
   31.4207   10.9576  -12.9340 H   0  0  0  0  0  0  0  0  0  0  0  0
   28.8176   11.5699  -13.3578 H   0  0  0  0  0  0  0  0  0  0  0  0
   26.3705    9.7840  -11.5162 H   0  0  0  0  0  0  0  0  0  0  0  0
   26.5268   10.6774  -13.0666 H   0  0  0  0  0  0  0  0  0  0  0  0
   26.4670    8.8821  -13.0666 H   0  0  0  0  0  0  0  0  0  0  0  0
   22.5774    8.2308   -2.6872 H   0  0  0  0  0  0  0  0  0  0  0  0
   23.7322    4.4840   -4.2793 H   0  0  0  0  0  0  0  0  0  0  0  0
   22.8789    6.0504   -1.2399 H   0  0  0  0  0  0  0  0  0  0  0  0
   21.4013    5.6883   -2.1949 H   0  0  0  0  0  0  0  0  0  0  0  0
   22.7763    4.5324   -2.1949 H   0  0  0  0  0  0  0  0  0  0  0  0
  1  7  1  0
  1  2  2  0
  1  5  1  0
  2  3  1  0
  2 19  1  0
  3  4  1  0
  4  8  2  0
  4  6  1  0
  6 10  1  0
  6  7  2  0
  8  9  1  0
  9 12  1  0
  9 10  2  0
 19 20  2  0
 19 21  1  0
 20 24  1  0
 21 25  2  0
 21 22  1  0
 22 23  1  0
 23 24  2  0
 23 26  1  0
 12 13  1  0
 13 17  1  0
 13 14  2  0
 14 15  1  0
 15 16  2  0
 16 17  1  0
 17 18  1  0
  5 11  1  0
  3 27  1  0
  7 28  1  0
 10 29  1  0
 11 30  1  1
 11 31  1  0
 11 32  1  0
 12 33  1  0
 15 34  1  0
 16 35  1  0
 18 36  1  1
 18 37  1  0
 18 38  1  0
 22 39  1  0
 24 40  1  0
 26 41  1  1
 26 42  1  0
 26 43  1  0
M  END
>  <Pose ID>  (10)
25

>  <Score>  (10)
-7.9023261070251465

>  <smiles>  (10)
COc1cc2cc(Nc3nccn3C)nc-2[nH]c1-c1ncc(C)[nH]c1=O

$$$$

     RDKit          3D

 44 47  0  0  0  0  0  0  0  0999 V2000
   25.0960    9.4670   -6.7480 C   0  0  0  0  0  0  0  0  0  0  0  0
   24.9250    8.1160   -6.4550 C   0  0  0  0  0  0  0  0  0  0  0  0
   25.5600    7.1510   -7.2260 N   0  0  0  0  0  0  0  0  0  0  0  0
   26.3690    7.5380   -8.2920 C   0  0  0  0  0  0  0  0  0  0  0  0
   24.6100   10.5280   -6.1670 O   0  0  0  0  0  0  0  0  0  0  0  0
   26.5390    8.8840   -8.5820 C   0  0  0  0  0  0  0  0  0  0  0  0
   25.9050    9.8480   -7.8120 C   0  0  0  0  0  0  0  0  0  0  0  0
   27.0770    6.7990   -9.1680 N   0  0  0  0  0  0  0  0  0  0  0  0
   27.7140    7.6480  -10.0440 C   0  0  0  0  0  0  0  0  0  0  0  0
   27.2750    8.8980   -9.5520 C   0  0  0  0  0  0  0  0  0  0  0  0
   25.5550   11.1890   -5.3340 C   0  0  1  0  0  0  0  0  0  0  0  0
   28.5590    7.5400  -11.1230 N   0  0  0  0  0  0  0  0  0  0  0  0
   29.0050    8.6510  -11.7560 C   0  0  0  0  0  0  0  0  0  0  0  0
   30.3760    8.9740  -11.8960 N   0  0  0  0  0  0  0  0  0  0  0  0
   30.4670   10.1780  -12.6080 C   0  0  0  0  0  0  0  0  0  0  0  0
   29.0910   10.4490  -12.8200 C   0  0  0  0  0  0  0  0  0  0  0  0
   28.2240    9.5370  -12.3250 N   0  0  0  0  0  0  0  0  0  0  0  0
   26.7530    9.5800  -12.4490 C   0  0  1  0  0  0  0  0  0  0  0  0
   24.1590    7.7390   -5.4330 C   0  0  0  0  0  0  0  0  0  0  0  0
   23.4910    8.5730   -4.5440 C   0  0  0  0  0  0  0  0  0  0  0  0
   24.1270    6.3610   -5.2520 N   0  0  0  0  0  0  0  0  0  0  0  0
   22.7930    8.0300   -3.4730 N   0  0  0  0  0  0  0  0  0  0  0  0
   22.7620    6.6510   -3.2910 C   0  0  0  0  0  0  0  0  0  0  0  0
   23.4480    5.8320   -4.1190 C   0  0  0  0  0  0  0  0  0  0  0  0
   23.4910    4.4820   -3.8660 N   0  0  0  0  0  0  0  0  0  0  0  0
   22.8760    3.7850   -2.7540 C   0  0  1  0  0  0  0  0  0  0  0  0
   25.4331    6.1519   -7.0102 H   0  0  0  0  0  0  0  0  0  0  0  0
   26.0426   10.9145   -8.0436 H   0  0  0  0  0  0  0  0  0  0  0  0
   27.5845    9.8419  -10.0244 H   0  0  0  0  0  0  0  0  0  0  0  0
   25.3010   11.0113   -4.2786 H   0  0  0  0  0  0  0  0  0  0  0  0
   26.5622   10.7974   -5.5397 H   0  0  0  0  0  0  0  0  0  0  0  0
   25.5326   12.2694   -5.5397 H   0  0  0  0  0  0  0  0  0  0  0  0
   28.8543    6.6096  -11.4516 H   0  0  0  0  0  0  0  0  0  0  0  0
   31.3545   10.7506  -12.9154 H   0  0  0  0  0  0  0  0  0  0  0  0
   28.7496   11.3474  -13.3551 H   0  0  0  0  0  0  0  0  0  0  0  0
   26.3007    9.5932  -11.4464 H   0  0  0  0  0  0  0  0  0  0  0  0
   26.4575   10.4872  -12.9965 H   0  0  0  0  0  0  0  0  0  0  0  0
   26.4051    8.6916  -12.9965 H   0  0  0  0  0  0  0  0  0  0  0  0
   23.5152    9.6632   -4.6887 H   0  0  0  0  0  0  0  0  0  0  0  0
   22.1738    6.2233   -2.4657 H   0  0  0  0  0  0  0  0  0  0  0  0
   24.0160    3.9042   -4.5379 H   0  0  0  0  0  0  0  0  0  0  0  0
   23.2469    4.2053   -1.8075 H   0  0  0  0  0  0  0  0  0  0  0  0
   21.7837    3.9046   -2.8052 H   0  0  0  0  0  0  0  0  0  0  0  0
   23.1306    2.7161   -2.8052 H   0  0  0  0  0  0  0  0  0  0  0  0
  1  7  1  0
  1  2  2  0
  1  5  1  0
  2  3  1  0
  2 19  1  0
  3  4  1  0
  4  8  2  0
  4  6  1  0
  6 10  1  0
  6  7  2  0
  8  9  1  0
  9 12  1  0
  9 10  2  0
 19 21  1  0
 19 20  2  0
 20 22  1  0
 21 24  2  0
 22 23  2  0
 23 24  1  0
 24 25  1  0
 25 26  1  0
 12 13  1  0
 13 17  1  0
 13 14  2  0
 14 15  1  0
 15 16  2  0
 16 17  1  0
 17 18  1  0
  5 11  1  0
  3 27  1  0
  7 28  1  0
 10 29  1  0
 11 30  1  1
 11 31  1  0
 11 32  1  0
 12 33  1  0
 15 34  1  0
 16 35  1  0
 18 36  1  1
 18 37  1  0
 18 38  1  0
 20 39  1  0
 23 40  1  0
 25 41  1  0
 26 42  1  1
 26 43  1  0
 26 44  1  0
M  END
>  <Pose ID>  (11)
10

>  <Score>  (11)
-7.737338066101074

>  <smiles>  (11)
CNc1cncc(-c2[nH]c3nc(Nc4nccn4C)cc-3cc2OC)n1

$$$$

     RDKit          3D

 55 59  0  0  0  0  0  0  0  0999 V2000
   25.2150    9.4480   -6.8490 C   0  0  0  0  0  0  0  0  0  0  0  0
   25.0710    8.0820   -6.6290 C   0  0  0  0  0  0  0  0  0  0  0  0
   25.7090    7.1720   -7.4610 N   0  0  0  0  0  0  0  0  0  0  0  0
   26.5010    7.6290   -8.5150 C   0  0  0  0  0  0  0  0  0  0  0  0
   24.7220   10.4710   -6.2070 O   0  0  0  0  0  0  0  0  0  0  0  0
   26.6470    8.9900   -8.7300 C   0  0  0  0  0  0  0  0  0  0  0  0
   26.0080    9.9010   -7.9020 C   0  0  0  0  0  0  0  0  0  0  0  0
   27.2090    6.9510   -9.4350 N   0  0  0  0  0  0  0  0  0  0  0  0
   27.8230    7.8590  -10.2700 C   0  0  0  0  0  0  0  0  0  0  0  0
   27.3690    9.0720   -9.7080 C   0  0  0  0  0  0  0  0  0  0  0  0
   25.6660   11.1010   -5.3500 C   0  0  1  0  0  0  0  0  0  0  0  0
   28.6540    7.8250  -11.3650 N   0  0  0  0  0  0  0  0  0  0  0  0
   29.0740    8.9750  -11.9400 C   0  0  0  0  0  0  0  0  0  0  0  0
   30.4390    9.3260  -12.0800 N   0  0  0  0  0  0  0  0  0  0  0  0
   30.5020   10.5700  -12.7240 C   0  0  0  0  0  0  0  0  0  0  0  0
   29.1190   10.8280  -12.9070 C   0  0  0  0  0  0  0  0  0  0  0  0
   28.2730    9.8780  -12.4510 N   0  0  0  0  0  0  0  0  0  0  0  0
   26.8010    9.9010  -12.5560 C   0  0  1  0  0  0  0  0  0  0  0  0
   26.1610   10.3100  -13.8840 C   0  0  1  0  0  0  0  0  0  0  0  0
   24.2670    7.6220   -5.5390 C   0  0  0  0  0  0  0  0  0  0  0  0
   23.6380    8.5010   -4.6670 C   0  0  0  0  0  0  0  0  0  0  0  0
   22.8420    8.0110   -3.6390 C   0  0  0  0  0  0  0  0  0  0  0  0
   22.6750    6.6400   -3.4830 C   0  0  0  0  0  0  0  0  0  0  0  0
   24.1020    6.2510   -5.3840 N   0  0  0  0  0  0  0  0  0  0  0  0
   23.3050    5.7600   -4.3550 N   0  0  0  0  0  0  0  0  0  0  0  0
   22.2240    8.8740   -2.7840 O   0  0  0  0  0  0  0  0  0  0  0  0
   21.8880    6.1540   -2.4670 N   0  0  0  0  0  0  0  0  0  0  0  0
   21.5620    4.6770   -2.3700 C   0  0  2  0  0  0  0  0  0  0  0  0
   21.6520    4.2590   -0.9330 C   0  0  1  0  0  0  0  0  0  0  0  0
   22.4410    3.0110   -1.4260 C   0  0  1  0  0  0  0  0  0  0  0  0
   22.5890    3.7220   -2.7230 C   0  0  1  0  0  0  0  0  0  0  0  0
   25.5978    6.1607   -7.3004 H   0  0  0  0  0  0  0  0  0  0  0  0
   26.1270   10.9806   -8.0763 H   0  0  0  0  0  0  0  0  0  0  0  0
   27.6538   10.0457  -10.1333 H   0  0  0  0  0  0  0  0  0  0  0  0
   25.3896   10.9165   -4.3014 H   0  0  0  0  0  0  0  0  0  0  0  0
   26.6679   10.6898   -5.5429 H   0  0  0  0  0  0  0  0  0  0  0  0
   25.6707   12.1840   -5.5429 H   0  0  0  0  0  0  0  0  0  0  0  0
   28.9582    6.9191  -11.7494 H   0  0  0  0  0  0  0  0  0  0  0  0
   31.3762   11.1746  -13.0071 H   0  0  0  0  0  0  0  0  0  0  0  0
   28.7568   11.7468  -13.3913 H   0  0  0  0  0  0  0  0  0  0  0  0
   26.4450    8.8862  -12.3250 H   0  0  0  0  0  0  0  0  0  0  0  0
   26.4981   10.6968  -11.8597 H   0  0  0  0  0  0  0  0  0  0  0  0
   25.2490   10.8928  -13.6874 H   0  0  0  0  0  0  0  0  0  0  0  0
   26.8705   10.9224  -14.4597 H   0  0  0  0  0  0  0  0  0  0  0  0
   25.9033    9.4088  -14.4597 H   0  0  0  0  0  0  0  0  0  0  0  0
   23.7701    9.5861   -4.7903 H   0  0  0  0  0  0  0  0  0  0  0  0
   21.6570    8.5242   -2.0517 H   0  0  0  0  0  0  0  0  0  0  0  0
   21.5138    6.8034   -1.7604 H   0  0  0  0  0  0  0  0  0  0  0  0
   20.6444    4.6441   -2.9757 H   0  0  0  0  0  0  0  0  0  0  0  0
   22.2266    4.9422   -0.2902 H   0  0  0  0  0  0  0  0  0  0  0  0
   20.7593    4.1686   -0.2967 H   0  0  0  0  0  0  0  0  0  0  0  0
   23.3845    2.8213   -0.8933 H   0  0  0  0  0  0  0  0  0  0  0  0
   22.0273    1.9939   -1.3603 H   0  0  0  0  0  0  0  0  0  0  0  0
   22.3359    3.1039   -3.5970 H   0  0  0  0  0  0  0  0  0  0  0  0
   23.5811    4.0844   -3.0303 H   0  0  0  0  0  0  0  0  0  0  0  0
  1  7  1  0
  1  2  2  0
  1  5  1  0
  2  3  1  0
  2 20  1  0
  3  4  1  0
  4  8  2  0
  4  6  1  0
  6 10  1  0
  6  7  2  0
  8  9  1  0
  9 12  1  0
  9 10  2  0
 12 13  1  0
 13 17  1  0
 13 14  2  0
 14 15  1  0
 15 16  2  0
 16 17  1  0
 17 18  1  0
 18 19  1  0
 20 24  1  0
 20 21  2  0
 21 22  1  0
 22 23  2  0
 22 26  1  0
 23 25  1  0
 23 27  1  0
 24 25  2  0
 27 28  1  0
 28 31  1  0
 28 29  1  0
 29 30  1  0
 30 31  1  0
  5 11  1  0
  3 32  1  0
  7 33  1  0
 10 34  1  0
 11 35  1  1
 11 36  1  0
 11 37  1  0
 12 38  1  0
 15 39  1  0
 16 40  1  0
 18 41  1  1
 18 42  1  0
 19 43  1  1
 19 44  1  0
 19 45  1  0
 21 46  1  0
 26 47  1  0
 27 48  1  0
 28 49  1  6
 29 50  1  1
 29 51  1  0
 30 52  1  1
 30 53  1  0
 31 54  1  6
 31 55  1  0
M  END
>  <Pose ID>  (12)
4

>  <Score>  (12)
-7.735982418060303

>  <smiles>  (12)
CCn1ccnc1Nc1cc2cc(OC)c(-c3cc(O)c(NC4CCC4)nn3)[nH]c-2n1

$$$$

     RDKit          3D

 40 43  0  0  0  0  0  0  0  0999 V2000
   25.1520    9.4450   -6.8160 C   0  0  0  0  0  0  0  0  0  0  0  0
   24.9810    8.0850   -6.5690 C   0  0  0  0  0  0  0  0  0  0  0  0
   25.6130    7.1470   -7.3720 N   0  0  0  0  0  0  0  0  0  0  0  0
   26.4220    7.5650   -8.4240 C   0  0  0  0  0  0  0  0  0  0  0  0
   24.6680   10.4890   -6.2010 O   0  0  0  0  0  0  0  0  0  0  0  0
   26.5960    8.9190   -8.6690 C   0  0  0  0  0  0  0  0  0  0  0  0
   25.9630    9.8600   -7.8680 C   0  0  0  0  0  0  0  0  0  0  0  0
   27.1290    6.8560   -9.3240 N   0  0  0  0  0  0  0  0  0  0  0  0
   27.7690    7.7340  -10.1710 C   0  0  0  0  0  0  0  0  0  0  0  0
   27.3310    8.9650   -9.6390 C   0  0  0  0  0  0  0  0  0  0  0  0
   25.6160   11.1190   -5.3480 C   0  0  1  0  0  0  0  0  0  0  0  0
   28.6120    7.6600  -11.2540 N   0  0  0  0  0  0  0  0  0  0  0  0
   29.0600    8.7900  -11.8490 C   0  0  0  0  0  0  0  0  0  0  0  0
   30.4310    9.1140  -11.9810 N   0  0  0  0  0  0  0  0  0  0  0  0
   30.5240   10.3420  -12.6500 C   0  0  0  0  0  0  0  0  0  0  0  0
   29.1490   10.6210  -12.8540 C   0  0  0  0  0  0  0  0  0  0  0  0
   28.2810    9.6940  -12.3890 N   0  0  0  0  0  0  0  0  0  0  0  0
   26.8110    9.7440  -12.5110 C   0  0  1  0  0  0  0  0  0  0  0  0
   24.2050    7.6690   -5.5630 C   0  0  0  0  0  0  0  0  0  0  0  0
   24.2450    6.2800   -5.5450 N   0  0  0  0  0  0  0  0  0  0  0  0
   23.5960    8.3600   -4.5220 C   0  0  0  0  0  0  0  0  0  0  0  0
   23.0300    7.6620   -3.4610 C   0  0  0  0  0  0  0  0  0  0  0  0
   23.0700    6.2730   -3.4440 C   0  0  0  0  0  0  0  0  0  0  0  0
   23.6930    5.6020   -4.4030 C   0  0  0  0  0  0  0  0  0  0  0  0
   22.2740    5.3810   -2.1120 Cl  0  0  0  0  0  0  0  0  0  0  0  0
   25.4835    6.1416   -7.1896 H   0  0  0  0  0  0  0  0  0  0  0  0
   26.1025   10.9332   -8.0649 H   0  0  0  0  0  0  0  0  0  0  0  0
   27.6397    9.9239  -10.0807 H   0  0  0  0  0  0  0  0  0  0  0  0
   25.3424   10.9372   -4.2982 H   0  0  0  0  0  0  0  0  0  0  0  0
   26.6165   10.7055   -5.5431 H   0  0  0  0  0  0  0  0  0  0  0  0
   25.6223   12.2015   -5.5431 H   0  0  0  0  0  0  0  0  0  0  0  0
   28.9041    6.7404  -11.6144 H   0  0  0  0  0  0  0  0  0  0  0  0
   31.4123   10.9244  -12.9359 H   0  0  0  0  0  0  0  0  0  0  0  0
   28.8086   11.5364  -13.3601 H   0  0  0  0  0  0  0  0  0  0  0  0
   26.3601    9.7593  -11.5078 H   0  0  0  0  0  0  0  0  0  0  0  0
   26.5192   10.6526  -13.0581 H   0  0  0  0  0  0  0  0  0  0  0  0
   26.4581    8.8573  -13.0581 H   0  0  0  0  0  0  0  0  0  0  0  0
   23.5618    9.4594   -4.5376 H   0  0  0  0  0  0  0  0  0  0  0  0
   22.5509    8.2089   -2.6356 H   0  0  0  0  0  0  0  0  0  0  0  0
   23.7892    4.5091   -4.3239 H   0  0  0  0  0  0  0  0  0  0  0  0
  1  7  1  0
  1  2  2  0
  1  5  1  0
  2  3  1  0
  2 19  1  0
  3  4  1  0
  4  8  2  0
  4  6  1  0
  6 10  1  0
  6  7  2  0
  8  9  1  0
  9 12  1  0
  9 10  2  0
 12 13  1  0
 13 17  1  0
 13 14  2  0
 14 15  1  0
 15 16  2  0
 16 17  1  0
 17 18  1  0
 19 20  2  0
 19 21  1  0
 20 24  1  0
 21 22  2  0
 22 23  1  0
 23 24  2  0
 23 25  1  0
  5 11  1  0
  3 26  1  0
  7 27  1  0
 10 28  1  0
 11 29  1  1
 11 30  1  0
 11 31  1  0
 12 32  1  0
 15 33  1  0
 16 34  1  0
 18 35  1  1
 18 36  1  0
 18 37  1  0
 21 38  1  0
 22 39  1  0
 24 40  1  0
M  END
>  <Pose ID>  (13)
31

>  <Score>  (13)
-7.721097469329834

>  <smiles>  (13)
COc1cc2cc(Nc3nccn3C)nc-2[nH]c1-c1ccc(Cl)cn1

$$$$

     RDKit          3D

 41 44  0  0  0  0  0  0  0  0999 V2000
   25.2910    9.4760   -6.8890 C   0  0  0  0  0  0  0  0  0  0  0  0
   25.1700    8.1070   -6.6750 C   0  0  0  0  0  0  0  0  0  0  0  0
   25.8220    7.2100   -7.5120 N   0  0  0  0  0  0  0  0  0  0  0  0
   26.5990    7.6850   -8.5670 C   0  0  0  0  0  0  0  0  0  0  0  0
   24.7810   10.4880   -6.2440 O   0  0  0  0  0  0  0  0  0  0  0  0
   26.7210    9.0510   -8.7790 C   0  0  0  0  0  0  0  0  0  0  0  0
   26.0680    9.9470   -7.9450 C   0  0  0  0  0  0  0  0  0  0  0  0
   27.3150    7.0220   -9.4940 N   0  0  0  0  0  0  0  0  0  0  0  0
   27.9080    7.9420  -10.3280 C   0  0  0  0  0  0  0  0  0  0  0  0
   27.4380    9.1440   -9.7610 C   0  0  0  0  0  0  0  0  0  0  0  0
   25.7180   11.1330   -5.3890 C   0  0  1  0  0  0  0  0  0  0  0  0
   28.7360    7.9260  -11.4270 N   0  0  0  0  0  0  0  0  0  0  0  0
   29.1350    9.0860  -12.0010 C   0  0  0  0  0  0  0  0  0  0  0  0
   30.4920    9.4600  -12.1450 N   0  0  0  0  0  0  0  0  0  0  0  0
   30.5300   10.7060  -12.7850 C   0  0  0  0  0  0  0  0  0  0  0  0
   29.1420   10.9410  -12.9610 C   0  0  0  0  0  0  0  0  0  0  0  0
   28.3150    9.9740  -12.5060 N   0  0  0  0  0  0  0  0  0  0  0  0
   26.8430    9.9750  -12.6020 C   0  0  1  0  0  0  0  0  0  0  0  0
   26.1890   10.3760  -13.9270 C   0  0  1  0  0  0  0  0  0  0  0  0
   24.3680    7.8950   -5.5890 N   0  0  0  0  0  0  0  0  0  0  0  0
   23.6920    8.7010   -4.7150 C   0  0  0  0  0  0  0  0  0  0  0  0
   24.1330    6.5820   -5.2320 C   0  0  0  0  0  0  0  0  0  0  0  0
   23.3190    6.7480   -4.1120 C   0  0  0  0  0  0  0  0  0  0  0  0
   23.0400    8.1230   -3.8240 N   0  0  0  0  0  0  0  0  0  0  0  0
   25.7313    6.1964   -7.3532 H   0  0  0  0  0  0  0  0  0  0  0  0
   26.1638   11.0292   -8.1175 H   0  0  0  0  0  0  0  0  0  0  0  0
   27.7062   10.1227  -10.1856 H   0  0  0  0  0  0  0  0  0  0  0  0
   25.4462   10.9459   -4.3397 H   0  0  0  0  0  0  0  0  0  0  0  0
   26.7253   10.7360   -5.5832 H   0  0  0  0  0  0  0  0  0  0  0  0
   25.7068   12.2157   -5.5832 H   0  0  0  0  0  0  0  0  0  0  0  0
   29.0542    7.0266  -11.8153 H   0  0  0  0  0  0  0  0  0  0  0  0
   31.3923   11.3265  -13.0703 H   0  0  0  0  0  0  0  0  0  0  0  0
   28.7617   11.8557  -13.4393 H   0  0  0  0  0  0  0  0  0  0  0  0
   26.5035    8.9547  -12.3700 H   0  0  0  0  0  0  0  0  0  0  0  0
   26.5321   10.7653  -11.9029 H   0  0  0  0  0  0  0  0  0  0  0  0
   25.2672   10.9412  -13.7247 H   0  0  0  0  0  0  0  0  0  0  0  0
   26.8844   11.0031  -14.5041 H   0  0  0  0  0  0  0  0  0  0  0  0
   25.9455    9.4718  -14.5041 H   0  0  0  0  0  0  0  0  0  0  0  0
   23.7221    9.7977   -4.7941 H   0  0  0  0  0  0  0  0  0  0  0  0
   24.4912    5.6551   -5.7038 H   0  0  0  0  0  0  0  0  0  0  0  0
   22.9318    5.9108   -3.5126 H   0  0  0  0  0  0  0  0  0  0  0  0
  1  7  1  0
  1  2  2  0
  1  5  1  0
  2  3  1  0
  2 20  1  0
  3  4  1  0
  4  8  2  0
  4  6  1  0
  6 10  1  0
  6  7  2  0
  8  9  1  0
  9 12  1  0
  9 10  2  0
 12 13  1  0
 13 17  1  0
 13 14  2  0
 14 15  1  0
 15 16  2  0
 16 17  1  0
 17 18  1  0
 18 19  1  0
 20 22  1  0
 20 21  1  0
 21 24  2  0
 22 23  2  0
 23 24  1  0
  5 11  1  0
  3 25  1  0
  7 26  1  0
 10 27  1  0
 11 28  1  1
 11 29  1  0
 11 30  1  0
 12 31  1  0
 15 32  1  0
 16 33  1  0
 18 34  1  1
 18 35  1  0
 19 36  1  1
 19 37  1  0
 19 38  1  0
 21 39  1  0
 22 40  1  0
 23 41  1  0
M  END
>  <Pose ID>  (14)
13

>  <Score>  (14)
-7.677271366119385

>  <smiles>  (14)
CCn1ccnc1Nc1cc2cc(OC)c(-n3ccnc3)[nH]c-2n1

$$$$

     RDKit          3D

 39 42  0  0  0  0  0  0  0  0999 V2000
   25.3820    9.6600   -6.8030 C   0  0  0  0  0  0  0  0  0  0  0  0
   25.2260    8.3010   -6.5420 C   0  0  0  0  0  0  0  0  0  0  0  0
   25.8460    7.3610   -7.3540 N   0  0  0  0  0  0  0  0  0  0  0  0
   26.6240    7.7790   -8.4320 C   0  0  0  0  0  0  0  0  0  0  0  0
   24.9050   10.7040   -6.1830 O   0  0  0  0  0  0  0  0  0  0  0  0
   26.7800    9.1330   -8.6900 C   0  0  0  0  0  0  0  0  0  0  0  0
   26.1590   10.0730   -7.8790 C   0  0  0  0  0  0  0  0  0  0  0  0
   27.3110    7.0680   -9.3440 N   0  0  0  0  0  0  0  0  0  0  0  0
   27.9220    7.9440  -10.2140 C   0  0  0  0  0  0  0  0  0  0  0  0
   27.4880    9.1770   -9.6800 C   0  0  0  0  0  0  0  0  0  0  0  0
   25.8680   11.3500   -5.3590 C   0  0  1  0  0  0  0  0  0  0  0  0
   28.7360    7.8690  -11.3180 N   0  0  0  0  0  0  0  0  0  0  0  0
   29.1590    8.9990  -11.9340 C   0  0  0  0  0  0  0  0  0  0  0  0
   30.5250    9.3330  -12.1030 N   0  0  0  0  0  0  0  0  0  0  0  0
   30.5890   10.5560  -12.7840 C   0  0  0  0  0  0  0  0  0  0  0  0
   29.2070   10.8230  -12.9530 C   0  0  0  0  0  0  0  0  0  0  0  0
   28.3590    9.8940  -12.4580 N   0  0  0  0  0  0  0  0  0  0  0  0
   26.8850    9.9290  -12.5420 C   0  0  1  0  0  0  0  0  0  0  0  0
   24.4440    7.8810   -5.4520 C   0  0  0  0  0  0  0  0  0  0  0  0
   23.7160    8.5340   -4.4800 N   0  0  0  0  0  0  0  0  0  0  0  0
   24.2780    6.4990   -5.1980 C   0  0  0  0  0  0  0  0  0  0  0  0
   23.1730    7.6420   -3.6890 C   0  0  0  0  0  0  0  0  0  0  0  0
   23.5760    6.2700   -4.2100 C   0  0  0  0  0  0  0  0  0  0  0  0
   25.7311    6.3560   -7.1599 H   0  0  0  0  0  0  0  0  0  0  0  0
   26.2819   11.1459   -8.0881 H   0  0  0  0  0  0  0  0  0  0  0  0
   27.7765   10.1347  -10.1378 H   0  0  0  0  0  0  0  0  0  0  0  0
   25.6173   11.1819   -4.3012 H   0  0  0  0  0  0  0  0  0  0  0  0
   26.8660   10.9380   -5.5693 H   0  0  0  0  0  0  0  0  0  0  0  0
   25.8653   12.4297   -5.5693 H   0  0  0  0  0  0  0  0  0  0  0  0
   29.0262    6.9491  -11.6792 H   0  0  0  0  0  0  0  0  0  0  0  0
   31.4644   11.1431  -13.0986 H   0  0  0  0  0  0  0  0  0  0  0  0
   28.8463   11.7319  -13.4568 H   0  0  0  0  0  0  0  0  0  0  0  0
   26.4601    9.9391  -11.5274 H   0  0  0  0  0  0  0  0  0  0  0  0
   26.5698   10.8349  -13.0806 H   0  0  0  0  0  0  0  0  0  0  0  0
   26.5272    9.0391  -13.0806 H   0  0  0  0  0  0  0  0  0  0  0  0
   23.6156    9.5552   -4.3905 H   0  0  0  0  0  0  0  0  0  0  0  0
   24.7287    5.7099   -5.8179 H   0  0  0  0  0  0  0  0  0  0  0  0
   22.5427    7.8467   -2.8111 H   0  0  0  0  0  0  0  0  0  0  0  0
   23.3013    5.2886   -3.7960 H   0  0  0  0  0  0  0  0  0  0  0  0
  1  7  1  0
  1  2  2  0
  1  5  1  0
  2  3  1  0
  2 19  1  0
  3  4  1  0
  4  8  2  0
  4  6  1  0
  6 10  1  0
  6  7  2  0
  8  9  1  0
  9 12  1  0
  9 10  2  0
 12 13  1  0
 13 17  1  0
 13 14  2  0
 14 15  1  0
 15 16  2  0
 16 17  1  0
 17 18  1  0
 19 21  2  0
 19 20  1  0
 20 22  1  0
 21 23  1  0
 22 23  2  0
  5 11  1  0
  3 24  1  0
  7 25  1  0
 10 26  1  0
 11 27  1  1
 11 28  1  0
 11 29  1  0
 12 30  1  0
 15 31  1  0
 16 32  1  0
 18 33  1  1
 18 34  1  0
 18 35  1  0
 20 36  1  0
 21 37  1  0
 22 38  1  0
 23 39  1  0
M  END
>  <Pose ID>  (15)
38

>  <Score>  (15)
-7.657680511474609

>  <smiles>  (15)
COc1cc2cc(Nc3nccn3C)nc-2[nH]c1-c1ccc[nH]1

$$$$

     RDKit          3D

 48 51  0  0  0  0  0  0  0  0999 V2000
   25.3140    9.4480   -6.8840 C   0  0  0  0  0  0  0  0  0  0  0  0
   25.1430    8.0820   -6.6790 C   0  0  0  0  0  0  0  0  0  0  0  0
   25.7620    7.1700   -7.5250 N   0  0  0  0  0  0  0  0  0  0  0  0
   26.5550    7.6220   -8.5750 C   0  0  0  0  0  0  0  0  0  0  0  0
   24.8400   10.4720   -6.2310 O   0  0  0  0  0  0  0  0  0  0  0  0
   26.7270    8.9840   -8.7760 C   0  0  0  0  0  0  0  0  0  0  0  0
   26.1080    9.8960   -7.9370 C   0  0  0  0  0  0  0  0  0  0  0  0
   27.2460    6.9410   -9.5070 N   0  0  0  0  0  0  0  0  0  0  0  0
   27.8740    7.8450  -10.3350 C   0  0  0  0  0  0  0  0  0  0  0  0
   27.4480    9.0600   -9.7570 C   0  0  0  0  0  0  0  0  0  0  0  0
   25.8010   11.0740   -5.3690 C   0  0  1  0  0  0  0  0  0  0  0  0
   28.6990    7.8080  -11.4320 N   0  0  0  0  0  0  0  0  0  0  0  0
   29.1400    8.9560  -11.9970 C   0  0  0  0  0  0  0  0  0  0  0  0
   30.5120    9.2830  -12.1410 N   0  0  0  0  0  0  0  0  0  0  0  0
   30.5960   10.5290  -12.7710 C   0  0  0  0  0  0  0  0  0  0  0  0
   29.2170   10.8190  -12.9440 C   0  0  0  0  0  0  0  0  0  0  0  0
   28.3550    9.8790  -12.4960 N   0  0  0  0  0  0  0  0  0  0  0  0
   26.8820    9.9340  -12.5940 C   0  0  1  0  0  0  0  0  0  0  0  0
   26.2470   10.3680  -13.9140 C   0  0  1  0  0  0  0  0  0  0  0  0
   24.3000    7.6000   -5.5570 C   0  0  0  0  0  0  0  0  0  0  0  0
   23.7570    6.4990   -5.5850 O   0  0  0  0  0  0  0  0  0  0  0  0
   24.0660    8.4060   -4.3830 N   0  0  0  0  0  0  0  0  0  0  0  0
   23.4090    8.0290   -3.1660 C   0  0  0  0  0  0  0  0  0  0  0  0
   23.0220    6.7190   -2.9100 C   0  0  0  0  0  0  0  0  0  0  0  0
   22.4360    6.3920   -1.6940 N   0  0  0  0  0  0  0  0  0  0  0  0
   22.2340    7.3760   -0.7320 C   0  0  0  0  0  0  0  0  0  0  0  0
   22.6220    8.6870   -0.9890 C   0  0  0  0  0  0  0  0  0  0  0  0
   23.2090    9.0120   -2.2060 C   0  0  0  0  0  0  0  0  0  0  0  0
   22.3670    9.9540    0.2490 Cl  0  0  0  0  0  0  0  0  0  0  0  0
   23.5890   10.2970   -2.4570 O   0  0  0  0  0  0  0  0  0  0  0  0
   25.6338    6.1591   -7.3748 H   0  0  0  0  0  0  0  0  0  0  0  0
   26.2436   10.9750   -8.1025 H   0  0  0  0  0  0  0  0  0  0  0  0
   27.7525   10.0319  -10.1725 H   0  0  0  0  0  0  0  0  0  0  0  0
   25.5165   10.8958   -4.3215 H   0  0  0  0  0  0  0  0  0  0  0  0
   26.7911   10.6344   -5.5599 H   0  0  0  0  0  0  0  0  0  0  0  0
   25.8375   12.1567   -5.5599 H   0  0  0  0  0  0  0  0  0  0  0  0
   28.9841    6.9007  -11.8275 H   0  0  0  0  0  0  0  0  0  0  0  0
   31.4811   11.1182  -13.0530 H   0  0  0  0  0  0  0  0  0  0  0  0
   28.8712   11.7515  -13.4138 H   0  0  0  0  0  0  0  0  0  0  0  0
   26.5054    8.9249  -12.3707 H   0  0  0  0  0  0  0  0  0  0  0  0
   26.5984   10.7292  -11.8888 H   0  0  0  0  0  0  0  0  0  0  0  0
   25.3548   10.9778  -13.7087 H   0  0  0  0  0  0  0  0  0  0  0  0
   26.9713   10.9609  -14.4919 H   0  0  0  0  0  0  0  0  0  0  0  0
   25.9577    9.4778  -14.4919 H   0  0  0  0  0  0  0  0  0  0  0  0
   24.4151    9.3741   -4.4248 H   0  0  0  0  0  0  0  0  0  0  0  0
   23.1799    5.9406   -3.6710 H   0  0  0  0  0  0  0  0  0  0  0  0
   21.7682    7.1180    0.2305 H   0  0  0  0  0  0  0  0  0  0  0  0
   23.4465   10.9980   -1.7726 H   0  0  0  0  0  0  0  0  0  0  0  0
  1  7  1  0
  1  2  2  0
  1  5  1  0
  2  3  1  0
  2 20  1  0
  3  4  1  0
  4  8  2  0
  4  6  1  0
  6 10  1  0
  6  7  2  0
  8  9  1  0
  9 12  1  0
  9 10  2  0
 12 13  1  0
 13 17  1  0
 13 14  2  0
 14 15  1  0
 15 16  2  0
 16 17  1  0
 17 18  1  0
 18 19  1  0
 20 21  2  0
 20 22  1  0
 22 23  1  0
 23 24  2  0
 23 28  1  0
 24 25  1  0
 25 26  2  0
 26 27  1  0
 27 28  2  0
 27 29  1  0
 28 30  1  0
  5 11  1  0
  3 31  1  0
  7 32  1  0
 10 33  1  0
 11 34  1  1
 11 35  1  0
 11 36  1  0
 12 37  1  0
 15 38  1  0
 16 39  1  0
 18 40  1  1
 18 41  1  0
 19 42  1  1
 19 43  1  0
 19 44  1  0
 22 45  1  0
 24 46  1  0
 26 47  1  0
 30 48  1  0
M  END
>  <Pose ID>  (16)
11

>  <Score>  (16)
-7.647218704223633

>  <smiles>  (16)
CCn1ccnc1Nc1cc2cc(OC)c(C(=O)Nc3cncc(Cl)c3O)[nH]c-2n1

$$$$

     RDKit          3D

 40 42  0  0  0  0  0  0  0  0999 V2000
   25.1500    9.4650   -6.8790 C   0  0  0  0  0  0  0  0  0  0  0  0
   24.9940    8.1070   -6.6210 C   0  0  0  0  0  0  0  0  0  0  0  0
   25.6460    7.1670   -7.4070 N   0  0  0  0  0  0  0  0  0  0  0  0
   26.4650    7.5870   -8.4520 C   0  0  0  0  0  0  0  0  0  0  0  0
   24.6450   10.5080   -6.2830 O   0  0  0  0  0  0  0  0  0  0  0  0
   26.6230    8.9400   -8.7080 C   0  0  0  0  0  0  0  0  0  0  0  0
   25.9680    9.8800   -7.9250 C   0  0  0  0  0  0  0  0  0  0  0  0
   27.1920    6.8770   -9.3350 N   0  0  0  0  0  0  0  0  0  0  0  0
   27.8320    7.7550  -10.1820 C   0  0  0  0  0  0  0  0  0  0  0  0
   27.3710    8.9860   -9.6690 C   0  0  0  0  0  0  0  0  0  0  0  0
   25.5720   11.1610   -5.4220 C   0  0  1  0  0  0  0  0  0  0  0  0
   28.6900    7.6800  -11.2540 N   0  0  0  0  0  0  0  0  0  0  0  0
   29.1310    8.8130  -11.8560 C   0  0  0  0  0  0  0  0  0  0  0  0
   30.5000    9.1530  -11.9700 N   0  0  0  0  0  0  0  0  0  0  0  0
   30.5860   10.3740  -12.6520 C   0  0  0  0  0  0  0  0  0  0  0  0
   29.2110   10.6340  -12.8770 C   0  0  0  0  0  0  0  0  0  0  0  0
   28.3480    9.7000  -12.4130 N   0  0  0  0  0  0  0  0  0  0  0  0
   26.8790    9.7290  -12.5540 C   0  0  1  0  0  0  0  0  0  0  0  0
   24.2590    7.4560   -5.6660 N   0  0  0  0  0  0  0  0  0  0  0  0
   24.7100    6.1550   -5.1540 C   0  0  1  0  0  0  0  0  0  0  0  0
   23.0730    7.9570   -5.1270 C   0  0  0  0  0  0  0  0  0  0  0  0
   22.5460    9.0040   -5.4090 O   0  0  0  0  0  0  0  0  0  0  0  0
   22.5590    7.4150   -4.0660 N   0  0  0  0  0  0  0  0  0  0  0  0
   25.5244    6.1618   -7.2179 H   0  0  0  0  0  0  0  0  0  0  0  0
   26.0955   10.9529   -8.1313 H   0  0  0  0  0  0  0  0  0  0  0  0
   27.6733    9.9443  -10.1165 H   0  0  0  0  0  0  0  0  0  0  0  0
   25.2980   10.9680   -4.3743 H   0  0  0  0  0  0  0  0  0  0  0  0
   26.5843   10.7755   -5.6132 H   0  0  0  0  0  0  0  0  0  0  0  0
   25.5499   12.2440   -5.6132 H   0  0  0  0  0  0  0  0  0  0  0  0
   28.9988    6.7607  -11.6010 H   0  0  0  0  0  0  0  0  0  0  0  0
   31.4707   10.9640  -12.9333 H   0  0  0  0  0  0  0  0  0  0  0  0
   28.8661   11.5398  -13.3971 H   0  0  0  0  0  0  0  0  0  0  0  0
   26.4150    9.7382  -11.5567 H   0  0  0  0  0  0  0  0  0  0  0  0
   26.5813   10.6332  -13.1052 H   0  0  0  0  0  0  0  0  0  0  0  0
   26.5459    8.8373  -13.1052 H   0  0  0  0  0  0  0  0  0  0  0  0
   24.7042    6.1718   -4.0541 H   0  0  0  0  0  0  0  0  0  0  0  0
   24.0332    5.3653   -5.5122 H   0  0  0  0  0  0  0  0  0  0  0  0
   25.7304    5.9537   -5.5122 H   0  0  0  0  0  0  0  0  0  0  0  0
   21.6837    7.7867   -3.6703 H   0  0  0  0  0  0  0  0  0  0  0  0
   23.0263    6.6130   -3.6195 H   0  0  0  0  0  0  0  0  0  0  0  0
  1  7  1  0
  1  2  2  0
  1  5  1  0
  2  3  1  0
  2 19  1  0
  3  4  1  0
  4  8  2  0
  4  6  1  0
  6 10  1  0
  6  7  2  0
  8  9  1  0
  9 12  1  0
  9 10  2  0
 12 13  1  0
 13 17  1  0
 13 14  2  0
 14 15  1  0
 15 16  2  0
 16 17  1  0
 17 18  1  0
 19 20  1  0
 19 21  1  0
 21 22  2  0
 21 23  1  0
  5 11  1  0
  3 24  1  0
  7 25  1  0
 10 26  1  0
 11 27  1  1
 11 28  1  0
 11 29  1  0
 12 30  1  0
 15 31  1  0
 16 32  1  0
 18 33  1  1
 18 34  1  0
 18 35  1  0
 20 36  1  1
 20 37  1  0
 20 38  1  0
 23 39  1  0
 23 40  1  0
M  END
>  <Pose ID>  (17)
138

>  <Score>  (17)
-7.642147541046143

>  <smiles>  (17)
COc1cc2cc(Nc3nccn3C)nc-2[nH]c1N(C)C(N)=O

$$$$

     RDKit          3D

 42 45  0  0  0  0  0  0  0  0999 V2000
   25.3960    9.6560   -6.7990 C   0  0  0  0  0  0  0  0  0  0  0  0
   25.2330    8.2970   -6.5410 C   0  0  0  0  0  0  0  0  0  0  0  0
   25.8470    7.3560   -7.3570 N   0  0  0  0  0  0  0  0  0  0  0  0
   26.6260    7.7730   -8.4350 C   0  0  0  0  0  0  0  0  0  0  0  0
   24.9260   10.7000   -6.1750 O   0  0  0  0  0  0  0  0  0  0  0  0
   26.7880    9.1270   -8.6900 C   0  0  0  0  0  0  0  0  0  0  0  0
   26.1740   10.0680   -7.8750 C   0  0  0  0  0  0  0  0  0  0  0  0
   27.3070    7.0610   -9.3500 N   0  0  0  0  0  0  0  0  0  0  0  0
   27.9220    7.9360  -10.2190 C   0  0  0  0  0  0  0  0  0  0  0  0
   27.4950    9.1700   -9.6810 C   0  0  0  0  0  0  0  0  0  0  0  0
   25.8930   11.3390   -5.3510 C   0  0  1  0  0  0  0  0  0  0  0  0
   28.7330    7.8600  -11.3240 N   0  0  0  0  0  0  0  0  0  0  0  0
   29.1610    8.9890  -11.9380 C   0  0  0  0  0  0  0  0  0  0  0  0
   30.5290    9.3170  -12.1080 N   0  0  0  0  0  0  0  0  0  0  0  0
   30.5980   10.5410  -12.7860 C   0  0  0  0  0  0  0  0  0  0  0  0
   29.2170   10.8160  -12.9520 C   0  0  0  0  0  0  0  0  0  0  0  0
   28.3650    9.8900  -12.4580 N   0  0  0  0  0  0  0  0  0  0  0  0
   26.8910    9.9330  -12.5390 C   0  0  1  0  0  0  0  0  0  0  0  0
   24.4510    7.8780   -5.4510 C   0  0  0  0  0  0  0  0  0  0  0  0
   23.7280    8.5320   -4.4760 N   0  0  0  0  0  0  0  0  0  0  0  0
   24.2780    6.4960   -5.2010 C   0  0  0  0  0  0  0  0  0  0  0  0
   23.1820    7.6400   -3.6870 C   0  0  0  0  0  0  0  0  0  0  0  0
   23.5770    6.2680   -4.2130 C   0  0  0  0  0  0  0  0  0  0  0  0
   22.3200    7.9220   -2.4810 C   0  0  1  0  0  0  0  0  0  0  0  0
   25.7269    6.3510   -7.1659 H   0  0  0  0  0  0  0  0  0  0  0  0
   26.3031   11.1409   -8.0807 H   0  0  0  0  0  0  0  0  0  0  0  0
   27.7879   10.1274  -10.1366 H   0  0  0  0  0  0  0  0  0  0  0  0
   25.6410   11.1725   -4.2933 H   0  0  0  0  0  0  0  0  0  0  0  0
   26.8882   10.9201   -5.5612 H   0  0  0  0  0  0  0  0  0  0  0  0
   25.8978   12.4187   -5.5612 H   0  0  0  0  0  0  0  0  0  0  0  0
   29.0176    6.9395  -11.6882 H   0  0  0  0  0  0  0  0  0  0  0  0
   31.4759   11.1242  -13.1008 H   0  0  0  0  0  0  0  0  0  0  0  0
   28.8603   11.7282  -13.4527 H   0  0  0  0  0  0  0  0  0  0  0  0
   26.4682    9.9453  -11.5236 H   0  0  0  0  0  0  0  0  0  0  0  0
   26.5797   10.8406  -13.0769 H   0  0  0  0  0  0  0  0  0  0  0  0
   26.5273    9.0451  -13.0769 H   0  0  0  0  0  0  0  0  0  0  0  0
   23.6329    9.5534   -4.3833 H   0  0  0  0  0  0  0  0  0  0  0  0
   24.7232    5.7064   -5.8242 H   0  0  0  0  0  0  0  0  0  0  0  0
   23.2979    5.2868   -3.8014 H   0  0  0  0  0  0  0  0  0  0  0  0
   22.8983    7.7328   -1.5646 H   0  0  0  0  0  0  0  0  0  0  0  0
   21.9959    8.9730   -2.4996 H   0  0  0  0  0  0  0  0  0  0  0  0
   21.4374    7.2658   -2.4996 H   0  0  0  0  0  0  0  0  0  0  0  0
  1  7  1  0
  1  2  2  0
  1  5  1  0
  2  3  1  0
  2 19  1  0
  3  4  1  0
  4  8  2  0
  4  6  1  0
  6 10  1  0
  6  7  2  0
  8  9  1  0
  9 12  1  0
  9 10  2  0
 12 13  1  0
 13 17  1  0
 13 14  2  0
 14 15  1  0
 15 16  2  0
 16 17  1  0
 17 18  1  0
 19 21  2  0
 19 20  1  0
 20 22  1  0
 21 23  1  0
 22 23  2  0
 22 24  1  0
  5 11  1  0
  3 25  1  0
  7 26  1  0
 10 27  1  0
 11 28  1  1
 11 29  1  0
 11 30  1  0
 12 31  1  0
 15 32  1  0
 16 33  1  0
 18 34  1  1
 18 35  1  0
 18 36  1  0
 20 37  1  0
 21 38  1  0
 23 39  1  0
 24 40  1  1
 24 41  1  0
 24 42  1  0
M  END
>  <Pose ID>  (18)
39

>  <Score>  (18)
-7.635558128356934

>  <smiles>  (18)
COc1cc2cc(Nc3nccn3C)nc-2[nH]c1-c1ccc(C)[nH]1

$$$$

     RDKit          3D

 46 49  0  0  0  0  0  0  0  0999 V2000
   25.2010    9.4290   -6.8650 C   0  0  0  0  0  0  0  0  0  0  0  0
   25.0300    8.0680   -6.6420 C   0  0  0  0  0  0  0  0  0  0  0  0
   25.6700    7.1440   -7.4600 N   0  0  0  0  0  0  0  0  0  0  0  0
   26.4820    7.5840   -8.5010 C   0  0  0  0  0  0  0  0  0  0  0  0
   24.7100   10.4630   -6.2350 O   0  0  0  0  0  0  0  0  0  0  0  0
   26.6530    8.9430   -8.7210 C   0  0  0  0  0  0  0  0  0  0  0  0
   26.0150    9.8660   -7.9070 C   0  0  0  0  0  0  0  0  0  0  0  0
   27.1960    6.8920   -9.4070 N   0  0  0  0  0  0  0  0  0  0  0  0
   27.8360    7.7840  -10.2390 C   0  0  0  0  0  0  0  0  0  0  0  0
   27.3940    9.0080   -9.6880 C   0  0  0  0  0  0  0  0  0  0  0  0
   25.6510   11.0830   -5.3670 C   0  0  1  0  0  0  0  0  0  0  0  0
   28.6860    7.7300  -11.3180 N   0  0  0  0  0  0  0  0  0  0  0  0
   29.1330    8.8750  -11.8920 C   0  0  0  0  0  0  0  0  0  0  0  0
   30.5050    9.2030  -12.0100 N   0  0  0  0  0  0  0  0  0  0  0  0
   30.5960   10.4430  -12.6590 C   0  0  0  0  0  0  0  0  0  0  0  0
   29.2230   10.7240  -12.8630 C   0  0  0  0  0  0  0  0  0  0  0  0
   28.3530    9.7850  -12.4190 N   0  0  0  0  0  0  0  0  0  0  0  0
   26.8850    9.8330  -12.5470 C   0  0  1  0  0  0  0  0  0  0  0  0
   24.2000    7.8910   -5.5710 N   0  0  0  0  0  0  0  0  0  0  0  0
   23.3410    6.6990   -5.4990 C   0  0  1  0  0  0  0  0  0  0  0  0
   23.6240    8.7590   -4.8060 C   0  0  0  0  0  0  0  0  0  0  0  0
   23.9640    8.9250   -3.4690 N   0  0  0  0  0  0  0  0  0  0  0  0
   23.2960    9.8650   -2.6930 C   0  0  0  0  0  0  0  0  0  0  0  0
   22.2880   10.6380   -3.2540 C   0  0  0  0  0  0  0  0  0  0  0  0
   21.9470   10.4730   -4.5910 C   0  0  0  0  0  0  0  0  0  0  0  0
   22.6160    9.5330   -5.3680 C   0  0  0  0  0  0  0  0  0  0  0  0
   21.6330   11.5600   -2.4930 O   0  0  0  0  0  0  0  0  0  0  0  0
   25.5434    6.1351   -7.2958 H   0  0  0  0  0  0  0  0  0  0  0  0
   26.1516   10.9430   -8.0840 H   0  0  0  0  0  0  0  0  0  0  0  0
   27.7038    9.9748  -10.1115 H   0  0  0  0  0  0  0  0  0  0  0  0
   25.3651   10.8946   -4.3216 H   0  0  0  0  0  0  0  0  0  0  0  0
   26.6519   10.6669   -5.5541 H   0  0  0  0  0  0  0  0  0  0  0  0
   25.6637   12.1669   -5.5541 H   0  0  0  0  0  0  0  0  0  0  0  0
   28.9843    6.8177  -11.6917 H   0  0  0  0  0  0  0  0  0  0  0  0
   31.4840   11.0317  -12.9326 H   0  0  0  0  0  0  0  0  0  0  0  0
   28.8834   11.6488  -13.3524 H   0  0  0  0  0  0  0  0  0  0  0  0
   26.4299    9.8479  -11.5457 H   0  0  0  0  0  0  0  0  0  0  0  0
   26.5943   10.7411  -13.0954 H   0  0  0  0  0  0  0  0  0  0  0  0
   26.5356    8.9458  -13.0954 H   0  0  0  0  0  0  0  0  0  0  0  0
   23.1566    6.4431   -4.4452 H   0  0  0  0  0  0  0  0  0  0  0  0
   22.3834    6.9064   -5.9990 H   0  0  0  0  0  0  0  0  0  0  0  0
   23.8407    5.8562   -5.9990 H   0  0  0  0  0  0  0  0  0  0  0  0
   23.5658    9.9965   -1.6347 H   0  0  0  0  0  0  0  0  0  0  0  0
   21.1483   11.0855   -5.0347 H   0  0  0  0  0  0  0  0  0  0  0  0
   22.3473    9.4024   -6.4267 H   0  0  0  0  0  0  0  0  0  0  0  0
   20.9143   12.1112   -2.8927 H   0  0  0  0  0  0  0  0  0  0  0  0
  1  7  1  0
  1  2  2  0
  1  5  1  0
  2  3  1  0
  2 19  1  0
  3  4  1  0
  4  8  2  0
  4  6  1  0
  6 10  1  0
  6  7  2  0
  8  9  1  0
  9 12  1  0
  9 10  2  0
 12 13  1  0
 13 17  1  0
 13 14  2  0
 14 15  1  0
 15 16  2  0
 16 17  1  0
 17 18  1  0
 19 20  1  0
 19 21  1  0
 21 26  1  0
 21 22  2  0
 22 23  1  0
 23 24  2  0
 24 25  1  0
 24 27  1  0
 25 26  2  0
  5 11  1  0
  3 28  1  0
  7 29  1  0
 10 30  1  0
 11 31  1  1
 11 32  1  0
 11 33  1  0
 12 34  1  0
 15 35  1  0
 16 36  1  0
 18 37  1  1
 18 38  1  0
 18 39  1  0
 20 40  1  1
 20 41  1  0
 20 42  1  0
 23 43  1  0
 25 44  1  0
 26 45  1  0
 27 46  1  0
M  END
>  <Pose ID>  (19)
121

>  <Score>  (19)
-7.624554634094238

>  <smiles>  (19)
COc1cc2cc(Nc3nccn3C)nc-2[nH]c1N(C)c1ccc(O)cn1

$$$$

     RDKit          3D

 41 44  0  0  0  0  0  0  0  0999 V2000
   25.2150    9.5740   -6.7510 C   0  0  0  0  0  0  0  0  0  0  0  0
   25.0290    8.2220   -6.4730 C   0  0  0  0  0  0  0  0  0  0  0  0
   25.6390    7.2580   -7.2620 N   0  0  0  0  0  0  0  0  0  0  0  0
   26.4420    7.6440   -8.3340 C   0  0  0  0  0  0  0  0  0  0  0  0
   24.7550   10.6390   -6.1520 O   0  0  0  0  0  0  0  0  0  0  0  0
   26.6290    8.9900   -8.6090 C   0  0  0  0  0  0  0  0  0  0  0  0
   26.0190    9.9570   -7.8220 C   0  0  0  0  0  0  0  0  0  0  0  0
   27.1250    6.9060   -9.2260 N   0  0  0  0  0  0  0  0  0  0  0  0
   27.7680    7.7570  -10.0990 C   0  0  0  0  0  0  0  0  0  0  0  0
   27.3520    9.0050   -9.5900 C   0  0  0  0  0  0  0  0  0  0  0  0
   25.7210   11.2750   -5.3240 C   0  0  1  0  0  0  0  0  0  0  0  0
   28.5950    7.6470  -11.1910 N   0  0  0  0  0  0  0  0  0  0  0  0
   29.0520    8.7580  -11.8160 C   0  0  0  0  0  0  0  0  0  0  0  0
   30.4270    9.0590  -11.9690 N   0  0  0  0  0  0  0  0  0  0  0  0
   30.5280   10.2700  -12.6660 C   0  0  0  0  0  0  0  0  0  0  0  0
   29.1540   10.5660  -12.8610 C   0  0  0  0  0  0  0  0  0  0  0  0
   28.2790    9.6620  -12.3640 N   0  0  0  0  0  0  0  0  0  0  0  0
   26.8070    9.7280  -12.4690 C   0  0  1  0  0  0  0  0  0  0  0  0
   24.2660    7.6040   -5.4540 C   0  0  0  0  0  0  0  0  0  0  0  0
   24.1600    6.2210   -5.3750 N   0  0  0  0  0  0  0  0  0  0  0  0
   23.6450    8.4050   -4.5030 C   0  0  0  0  0  0  0  0  0  0  0  0
   22.9160    7.8210   -3.4720 C   0  0  0  0  0  0  0  0  0  0  0  0
   23.4350    5.6380   -4.3440 C   0  0  0  0  0  0  0  0  0  0  0  0
   22.8060    6.4250   -3.3970 N   0  0  0  0  0  0  0  0  0  0  0  0
   22.3650    8.5370   -2.6170 O   0  0  0  0  0  0  0  0  0  0  0  0
   23.7490    9.7620   -4.5820 O   0  0  0  0  0  0  0  0  0  0  0  0
   25.4988    6.2586   -7.0561 H   0  0  0  0  0  0  0  0  0  0  0  0
   26.1702   11.0238   -8.0437 H   0  0  0  0  0  0  0  0  0  0  0  0
   27.6662    9.9498  -10.0577 H   0  0  0  0  0  0  0  0  0  0  0  0
   25.4658   11.1070   -4.2673 H   0  0  0  0  0  0  0  0  0  0  0  0
   26.7160   10.8548   -5.5322 H   0  0  0  0  0  0  0  0  0  0  0  0
   25.7282   12.3551   -5.5322 H   0  0  0  0  0  0  0  0  0  0  0  0
   28.8684    6.7156  -11.5355 H   0  0  0  0  0  0  0  0  0  0  0  0
   31.4210   10.8330  -12.9751 H   0  0  0  0  0  0  0  0  0  0  0  0
   28.8209   11.4746  -13.3841 H   0  0  0  0  0  0  0  0  0  0  0  0
   26.3680    9.7477  -11.4606 H   0  0  0  0  0  0  0  0  0  0  0  0
   26.5187   10.6400  -13.0123 H   0  0  0  0  0  0  0  0  0  0  0  0
   26.4382    8.8455  -13.0123 H   0  0  0  0  0  0  0  0  0  0  0  0
   23.3606    4.5424   -4.2803 H   0  0  0  0  0  0  0  0  0  0  0  0
   22.2598    5.9884   -2.6408 H   0  0  0  0  0  0  0  0  0  0  0  0
   23.3067   10.3326   -3.9046 H   0  0  0  0  0  0  0  0  0  0  0  0
  1  7  1  0
  1  2  2  0
  1  5  1  0
  2  3  1  0
  2 19  1  0
  3  4  1  0
  4  8  2  0
  4  6  1  0
  6 10  1  0
  6  7  2  0
  8  9  1  0
  9 12  1  0
  9 10  2  0
 12 13  1  0
 13 17  1  0
 13 14  2  0
 14 15  1  0
 15 16  2  0
 16 17  1  0
 17 18  1  0
 19 20  1  0
 19 21  2  0
 20 23  2  0
 21 26  1  0
 21 22  1  0
 22 24  1  0
 22 25  2  0
 23 24  1  0
  5 11  1  0
  3 27  1  0
  7 28  1  0
 10 29  1  0
 11 30  1  1
 11 31  1  0
 11 32  1  0
 12 33  1  0
 15 34  1  0
 16 35  1  0
 18 36  1  1
 18 37  1  0
 18 38  1  0
 23 39  1  0
 24 40  1  0
 26 41  1  0
M  END
>  <Pose ID>  (20)
55

>  <Score>  (20)
-7.603770732879639

>  <smiles>  (20)
COc1cc2cc(Nc3nccn3C)nc-2[nH]c1-c1nc[nH]c(=O)c1O

$$$$

     RDKit          3D

 40 43  0  0  0  0  0  0  0  0999 V2000
   25.2150    9.5740   -6.7510 C   0  0  0  0  0  0  0  0  0  0  0  0
   25.0280    8.2220   -6.4730 C   0  0  0  0  0  0  0  0  0  0  0  0
   25.6390    7.2580   -7.2620 N   0  0  0  0  0  0  0  0  0  0  0  0
   26.4420    7.6440   -8.3330 C   0  0  0  0  0  0  0  0  0  0  0  0
   24.7540   10.6390   -6.1530 O   0  0  0  0  0  0  0  0  0  0  0  0
   26.6300    8.9900   -8.6080 C   0  0  0  0  0  0  0  0  0  0  0  0
   26.0190    9.9570   -7.8220 C   0  0  0  0  0  0  0  0  0  0  0  0
   27.1260    6.9050   -9.2250 N   0  0  0  0  0  0  0  0  0  0  0  0
   27.7690    7.7560  -10.0980 C   0  0  0  0  0  0  0  0  0  0  0  0
   27.3530    9.0040   -9.5890 C   0  0  0  0  0  0  0  0  0  0  0  0
   25.7200   11.2750   -5.3240 C   0  0  1  0  0  0  0  0  0  0  0  0
   28.5970    7.6460  -11.1890 N   0  0  0  0  0  0  0  0  0  0  0  0
   29.0540    8.7570  -11.8140 C   0  0  0  0  0  0  0  0  0  0  0  0
   30.4290    9.0580  -11.9660 N   0  0  0  0  0  0  0  0  0  0  0  0
   30.5310   10.2690  -12.6640 C   0  0  0  0  0  0  0  0  0  0  0  0
   29.1570   10.5650  -12.8590 C   0  0  0  0  0  0  0  0  0  0  0  0
   28.2820    9.6610  -12.3630 N   0  0  0  0  0  0  0  0  0  0  0  0
   26.8100    9.7270  -12.4690 C   0  0  1  0  0  0  0  0  0  0  0  0
   24.2650    7.6040   -5.4540 C   0  0  0  0  0  0  0  0  0  0  0  0
   24.1590    6.2210   -5.3750 N   0  0  0  0  0  0  0  0  0  0  0  0
   23.6430    8.4050   -4.5040 C   0  0  0  0  0  0  0  0  0  0  0  0
   22.9140    7.8220   -3.4730 C   0  0  0  0  0  0  0  0  0  0  0  0
   23.4330    5.6380   -4.3440 C   0  0  0  0  0  0  0  0  0  0  0  0
   22.8040    6.4260   -3.3980 N   0  0  0  0  0  0  0  0  0  0  0  0
   22.3620    8.5380   -2.6190 O   0  0  0  0  0  0  0  0  0  0  0  0
   25.4991    6.2585   -7.0562 H   0  0  0  0  0  0  0  0  0  0  0  0
   26.1694   11.0237   -8.0444 H   0  0  0  0  0  0  0  0  0  0  0  0
   27.6674    9.9485  -10.0570 H   0  0  0  0  0  0  0  0  0  0  0  0
   25.4643   11.1066   -4.2675 H   0  0  0  0  0  0  0  0  0  0  0  0
   26.7151   10.8548   -5.5318 H   0  0  0  0  0  0  0  0  0  0  0  0
   25.7273   12.3552   -5.5318 H   0  0  0  0  0  0  0  0  0  0  0  0
   28.8712    6.7146  -11.5329 H   0  0  0  0  0  0  0  0  0  0  0  0
   31.4243   10.8314  -12.9734 H   0  0  0  0  0  0  0  0  0  0  0  0
   28.8241   11.4739  -13.3815 H   0  0  0  0  0  0  0  0  0  0  0  0
   26.3703    9.7467  -11.4609 H   0  0  0  0  0  0  0  0  0  0  0  0
   26.5220   10.6390  -13.0125 H   0  0  0  0  0  0  0  0  0  0  0  0
   26.4416    8.8445  -13.0125 H   0  0  0  0  0  0  0  0  0  0  0  0
   23.7272    9.4999   -4.5674 H   0  0  0  0  0  0  0  0  0  0  0  0
   23.3581    4.5424   -4.2799 H   0  0  0  0  0  0  0  0  0  0  0  0
   22.2573    5.9898   -2.6419 H   0  0  0  0  0  0  0  0  0  0  0  0
  1  7  1  0
  1  2  2  0
  1  5  1  0
  2  3  1  0
  2 19  1  0
  3  4  1  0
  4  8  2  0
  4  6  1  0
  6 10  1  0
  6  7  2  0
  8  9  1  0
  9 12  1  0
  9 10  2  0
 12 13  1  0
 13 17  1  0
 13 14  2  0
 14 15  1  0
 15 16  2  0
 16 17  1  0
 17 18  1  0
 19 20  1  0
 19 21  2  0
 20 23  2  0
 21 22  1  0
 22 24  1  0
 22 25  2  0
 23 24  1  0
  5 11  1  0
  3 26  1  0
  7 27  1  0
 10 28  1  0
 11 29  1  1
 11 30  1  0
 11 31  1  0
 12 32  1  0
 15 33  1  0
 16 34  1  0
 18 35  1  1
 18 36  1  0
 18 37  1  0
 21 38  1  0
 23 39  1  0
 24 40  1  0
M  END
>  <Pose ID>  (21)
54

>  <Score>  (21)
-7.597445011138916

>  <smiles>  (21)
COc1cc2cc(Nc3nccn3C)nc-2[nH]c1-c1cc(=O)[nH]cn1

$$$$

     RDKit          3D

 43 46  0  0  0  0  0  0  0  0999 V2000
   25.2970    9.5410   -6.8790 C   0  0  0  0  0  0  0  0  0  0  0  0
   25.1700    8.1730   -6.6410 C   0  0  0  0  0  0  0  0  0  0  0  0
   25.8210    7.2610   -7.4630 N   0  0  0  0  0  0  0  0  0  0  0  0
   26.6040    7.7160   -8.5210 C   0  0  0  0  0  0  0  0  0  0  0  0
   24.7880   10.5630   -6.2470 O   0  0  0  0  0  0  0  0  0  0  0  0
   26.7320    9.0770   -8.7560 C   0  0  0  0  0  0  0  0  0  0  0  0
   26.0810    9.9910   -7.9370 C   0  0  0  0  0  0  0  0  0  0  0  0
   27.3210    7.0380   -9.4360 N   0  0  0  0  0  0  0  0  0  0  0  0
   27.9220    7.9410  -10.2840 C   0  0  0  0  0  0  0  0  0  0  0  0
   27.4520    9.1550   -9.7330 C   0  0  0  0  0  0  0  0  0  0  0  0
   25.7260   11.2150   -5.4000 C   0  0  1  0  0  0  0  0  0  0  0  0
   28.7520    7.9030  -11.3770 N   0  0  0  0  0  0  0  0  0  0  0  0
   29.1570    9.0530  -11.9680 C   0  0  0  0  0  0  0  0  0  0  0  0
   30.5150    9.4210  -12.1110 N   0  0  0  0  0  0  0  0  0  0  0  0
   30.5630   10.6560  -12.7710 C   0  0  0  0  0  0  0  0  0  0  0  0
   29.1770   10.8960  -12.9550 C   0  0  0  0  0  0  0  0  0  0  0  0
   28.3440    9.9370  -12.4890 N   0  0  0  0  0  0  0  0  0  0  0  0
   26.8700    9.9420  -12.5910 C   0  0  1  0  0  0  0  0  0  0  0  0
   24.3600    7.6740   -5.5540 C   0  0  0  0  0  0  0  0  0  0  0  0
   23.6820    8.5680   -4.7340 N   0  0  0  0  0  0  0  0  0  0  0  0
   24.2670    6.3070   -5.3220 C   0  0  0  0  0  0  0  0  0  0  0  0
   23.4930    5.8330   -4.2690 N   0  0  0  0  0  0  0  0  0  0  0  0
   22.8140    6.7240   -3.4490 C   0  0  0  0  0  0  0  0  0  0  0  0
   22.8750    8.0370   -3.6410 C   0  0  0  0  0  0  0  0  0  0  0  0
   22.2470    8.8100   -2.8930 O   0  0  0  0  0  0  0  0  0  0  0  0
   21.9840    6.1870   -2.3090 C   0  0  1  0  0  0  0  0  0  0  0  0
   25.7246    6.2502   -7.2900 H   0  0  0  0  0  0  0  0  0  0  0  0
   26.1852   11.0698   -8.1247 H   0  0  0  0  0  0  0  0  0  0  0  0
   27.7254   10.1273  -10.1687 H   0  0  0  0  0  0  0  0  0  0  0  0
   25.4606   11.0306   -4.3485 H   0  0  0  0  0  0  0  0  0  0  0  0
   26.7341   10.8219   -5.5982 H   0  0  0  0  0  0  0  0  0  0  0  0
   25.7088   12.2969   -5.5982 H   0  0  0  0  0  0  0  0  0  0  0  0
   29.0682    6.9962  -11.7494 H   0  0  0  0  0  0  0  0  0  0  0  0
   31.4299   11.2666  -13.0636 H   0  0  0  0  0  0  0  0  0  0  0  0
   28.8024   11.8060  -13.4464 H   0  0  0  0  0  0  0  0  0  0  0  0
   26.4326    9.9435  -11.5817 H   0  0  0  0  0  0  0  0  0  0  0  0
   26.5431   10.8413  -13.1336 H   0  0  0  0  0  0  0  0  0  0  0  0
   26.5370    9.0450  -13.1336 H   0  0  0  0  0  0  0  0  0  0  0  0
   23.7479    9.5833   -4.8945 H   0  0  0  0  0  0  0  0  0  0  0  0
   24.8054    5.6006   -5.9710 H   0  0  0  0  0  0  0  0  0  0  0  0
   22.4402    6.4821   -1.3525 H   0  0  0  0  0  0  0  0  0  0  0  0
   20.9655    6.5978   -2.3717 H   0  0  0  0  0  0  0  0  0  0  0  0
   21.9413    5.0896   -2.3717 H   0  0  0  0  0  0  0  0  0  0  0  0
  1  7  1  0
  1  2  2  0
  1  5  1  0
  2  3  1  0
  2 19  1  0
  3  4  1  0
  4  8  2  0
  4  6  1  0
  6 10  1  0
  6  7  2  0
  8  9  1  0
  9 12  1  0
  9 10  2  0
 19 21  2  0
 19 20  1  0
 20 24  1  0
 21 22  1  0
 22 23  2  0
 23 24  1  0
 23 26  1  0
 24 25  2  0
 12 13  1  0
 13 17  1  0
 13 14  2  0
 14 15  1  0
 15 16  2  0
 16 17  1  0
 17 18  1  0
  5 11  1  0
  3 27  1  0
  7 28  1  0
 10 29  1  0
 11 30  1  1
 11 31  1  0
 11 32  1  0
 12 33  1  0
 15 34  1  0
 16 35  1  0
 18 36  1  1
 18 37  1  0
 18 38  1  0
 20 39  1  0
 21 40  1  0
 26 41  1  1
 26 42  1  0
 26 43  1  0
M  END
>  <Pose ID>  (22)
35

>  <Score>  (22)
-7.586177825927734

>  <smiles>  (22)
COc1cc2cc(Nc3nccn3C)nc-2[nH]c1-c1cnc(C)c(=O)[nH]1

$$$$

     RDKit          3D

 41 44  0  0  0  0  0  0  0  0999 V2000
   25.2380    9.3120   -6.9390 C   0  0  0  0  0  0  0  0  0  0  0  0
   25.1310    7.9350   -6.7670 C   0  0  0  0  0  0  0  0  0  0  0  0
   25.7950    7.0730   -7.6300 N   0  0  0  0  0  0  0  0  0  0  0  0
   26.5730    7.5870   -8.6640 C   0  0  0  0  0  0  0  0  0  0  0  0
   24.7150   10.2980   -6.2630 O   0  0  0  0  0  0  0  0  0  0  0  0
   26.6810    8.9600   -8.8330 C   0  0  0  0  0  0  0  0  0  0  0  0
   26.0160    9.8240   -7.9740 C   0  0  0  0  0  0  0  0  0  0  0  0
   27.2990    6.9630   -9.6080 N   0  0  0  0  0  0  0  0  0  0  0  0
   27.8890    7.9140  -10.4100 C   0  0  0  0  0  0  0  0  0  0  0  0
   27.4020    9.0930   -9.8060 C   0  0  0  0  0  0  0  0  0  0  0  0
   25.6410   10.9230   -5.3830 C   0  0  1  0  0  0  0  0  0  0  0  0
   28.7210    7.9410  -11.5030 N   0  0  0  0  0  0  0  0  0  0  0  0
   29.1120    9.1240  -12.0380 C   0  0  0  0  0  0  0  0  0  0  0  0
   30.4660    9.5150  -12.1620 N   0  0  0  0  0  0  0  0  0  0  0  0
   30.4940   10.7800  -12.7630 C   0  0  0  0  0  0  0  0  0  0  0  0
   29.1060   11.0090  -12.9390 C   0  0  0  0  0  0  0  0  0  0  0  0
   28.2860   10.0210  -12.5180 N   0  0  0  0  0  0  0  0  0  0  0  0
   26.8140   10.0080  -12.6230 C   0  0  1  0  0  0  0  0  0  0  0  0
   26.1630   10.4450  -13.9370 C   0  0  1  0  0  0  0  0  0  0  0  0
   24.3710    7.4320   -5.7480 N   0  0  0  0  0  0  0  0  0  0  0  0
   23.7180    8.2800   -4.8970 C   0  0  0  0  0  0  0  0  0  0  0  0
   24.1530    6.2570   -5.4930 N   0  0  0  0  0  0  0  0  0  0  0  0
   23.0480    7.4600   -4.0650 C   0  0  0  0  0  0  0  0  0  0  0  0
   23.3320    6.1850   -4.4560 C   0  0  0  0  0  0  0  0  0  0  0  0
   25.7120    6.0540   -7.5052 H   0  0  0  0  0  0  0  0  0  0  0  0
   26.1035   10.9119   -8.1108 H   0  0  0  0  0  0  0  0  0  0  0  0
   27.6619   10.0880  -10.1965 H   0  0  0  0  0  0  0  0  0  0  0  0
   25.3478   10.7251   -4.3414 H   0  0  0  0  0  0  0  0  0  0  0  0
   26.6482   10.5192   -5.5635 H   0  0  0  0  0  0  0  0  0  0  0  0
   25.6432   12.0081   -5.5635 H   0  0  0  0  0  0  0  0  0  0  0  0
   29.0496    7.0576  -11.9184 H   0  0  0  0  0  0  0  0  0  0  0  0
   31.3519   11.4168  -13.0248 H   0  0  0  0  0  0  0  0  0  0  0  0
   28.7201   11.9347  -13.3908 H   0  0  0  0  0  0  0  0  0  0  0  0
   26.4854    8.9767  -12.4272 H   0  0  0  0  0  0  0  0  0  0  0  0
   26.4899   10.7710  -11.8999 H   0  0  0  0  0  0  0  0  0  0  0  0
   25.2676   11.0461  -13.7204 H   0  0  0  0  0  0  0  0  0  0  0  0
   26.8773   11.0472  -14.5176 H   0  0  0  0  0  0  0  0  0  0  0  0
   25.8761    9.5558  -14.5176 H   0  0  0  0  0  0  0  0  0  0  0  0
   23.7359    9.3798   -4.8929 H   0  0  0  0  0  0  0  0  0  0  0  0
   22.3971    7.7608   -3.2308 H   0  0  0  0  0  0  0  0  0  0  0  0
   22.9487    5.2633   -3.9939 H   0  0  0  0  0  0  0  0  0  0  0  0
  1  7  1  0
  1  2  2  0
  1  5  1  0
  2  3  1  0
  2 20  1  0
  3  4  1  0
  4  8  2  0
  4  6  1  0
  6 10  1  0
  6  7  2  0
  8  9  1  0
  9 12  1  0
  9 10  2  0
 12 13  1  0
 13 17  1  0
 13 14  2  0
 14 15  1  0
 15 16  2  0
 16 17  1  0
 17 18  1  0
 18 19  1  0
 20 22  1  0
 20 21  1  0
 21 23  2  0
 22 24  2  0
 23 24  1  0
  5 11  1  0
  3 25  1  0
  7 26  1  0
 10 27  1  0
 11 28  1  1
 11 29  1  0
 11 30  1  0
 12 31  1  0
 15 32  1  0
 16 33  1  0
 18 34  1  1
 18 35  1  0
 19 36  1  1
 19 37  1  0
 19 38  1  0
 21 39  1  0
 23 40  1  0
 24 41  1  0
M  END
>  <Pose ID>  (23)
16

>  <Score>  (23)
-7.560756683349609

>  <smiles>  (23)
CCn1ccnc1Nc1cc2cc(OC)c(-n3cccn3)[nH]c-2n1

$$$$

     RDKit          3D

 40 43  0  0  0  0  0  0  0  0999 V2000
   25.1510    9.4330   -6.8290 C   0  0  0  0  0  0  0  0  0  0  0  0
   24.9790    8.0730   -6.5870 C   0  0  0  0  0  0  0  0  0  0  0  0
   25.6130    7.1360   -7.3920 N   0  0  0  0  0  0  0  0  0  0  0  0
   26.4240    7.5600   -8.4420 C   0  0  0  0  0  0  0  0  0  0  0  0
   24.6670   10.4750   -6.2100 O   0  0  0  0  0  0  0  0  0  0  0  0
   26.5980    8.9150   -8.6820 C   0  0  0  0  0  0  0  0  0  0  0  0
   25.9640    9.8540   -7.8780 C   0  0  0  0  0  0  0  0  0  0  0  0
   27.1320    6.8550   -9.3430 N   0  0  0  0  0  0  0  0  0  0  0  0
   27.7730    7.7350  -10.1850 C   0  0  0  0  0  0  0  0  0  0  0  0
   27.3350    8.9650   -9.6500 C   0  0  0  0  0  0  0  0  0  0  0  0
   25.6130   11.1020   -5.3530 C   0  0  1  0  0  0  0  0  0  0  0  0
   28.6180    7.6640  -11.2670 N   0  0  0  0  0  0  0  0  0  0  0  0
   29.0670    8.7970  -11.8580 C   0  0  0  0  0  0  0  0  0  0  0  0
   30.4390    9.1210  -11.9850 N   0  0  0  0  0  0  0  0  0  0  0  0
   30.5330   10.3530  -12.6480 C   0  0  0  0  0  0  0  0  0  0  0  0
   29.1580   10.6330  -12.8550 C   0  0  0  0  0  0  0  0  0  0  0  0
   28.2890    9.7050  -12.3950 N   0  0  0  0  0  0  0  0  0  0  0  0
   26.8190    9.7540  -12.5190 C   0  0  1  0  0  0  0  0  0  0  0  0
   24.1740    7.6400   -5.5400 C   0  0  0  0  0  0  0  0  0  0  0  0
   24.2350    6.2550   -5.4520 N   0  0  0  0  0  0  0  0  0  0  0  0
   23.5600    8.3750   -4.5320 C   0  0  0  0  0  0  0  0  0  0  0  0
   23.0070    7.7230   -3.4360 N   0  0  0  0  0  0  0  0  0  0  0  0
   23.0680    6.3370   -3.3480 C   0  0  0  0  0  0  0  0  0  0  0  0
   23.6680    5.6080   -4.3360 C   0  0  0  0  0  0  0  0  0  0  0  0
   23.5060    9.6160   -4.6110 O   0  0  0  0  0  0  0  0  0  0  0  0
   25.4839    6.1299   -7.2131 H   0  0  0  0  0  0  0  0  0  0  0  0
   26.1040   10.9281   -8.0698 H   0  0  0  0  0  0  0  0  0  0  0  0
   27.6452    9.9254  -10.0875 H   0  0  0  0  0  0  0  0  0  0  0  0
   25.3360   10.9184   -4.3044 H   0  0  0  0  0  0  0  0  0  0  0  0
   26.6136   10.6877   -5.5459 H   0  0  0  0  0  0  0  0  0  0  0  0
   25.6212   12.1849   -5.5459 H   0  0  0  0  0  0  0  0  0  0  0  0
   28.9109    6.7455  -11.6297 H   0  0  0  0  0  0  0  0  0  0  0  0
   31.4219   10.9372  -12.9283 H   0  0  0  0  0  0  0  0  0  0  0  0
   28.8191   11.5499  -13.3594 H   0  0  0  0  0  0  0  0  0  0  0  0
   26.3668    9.7691  -11.5164 H   0  0  0  0  0  0  0  0  0  0  0  0
   26.5273   10.6624  -13.0665 H   0  0  0  0  0  0  0  0  0  0  0  0
   26.4674    8.8671  -13.0665 H   0  0  0  0  0  0  0  0  0  0  0  0
   22.5520    8.2669   -2.6890 H   0  0  0  0  0  0  0  0  0  0  0  0
   22.6310    5.8243   -2.4784 H   0  0  0  0  0  0  0  0  0  0  0  0
   23.7085    4.5114   -4.2597 H   0  0  0  0  0  0  0  0  0  0  0  0
  1  7  1  0
  1  2  2  0
  1  5  1  0
  2  3  1  0
  2 19  1  0
  3  4  1  0
  4  8  2  0
  4  6  1  0
  6 10  1  0
  6  7  2  0
  8  9  1  0
  9 12  1  0
  9 10  2  0
 12 13  1  0
 13 17  1  0
 13 14  2  0
 14 15  1  0
 15 16  2  0
 16 17  1  0
 17 18  1  0
 19 20  2  0
 19 21  1  0
 20 24  1  0
 21 25  2  0
 21 22  1  0
 22 23  1  0
 23 24  2  0
  5 11  1  0
  3 26  1  0
  7 27  1  0
 10 28  1  0
 11 29  1  1
 11 30  1  0
 11 31  1  0
 12 32  1  0
 15 33  1  0
 16 34  1  0
 18 35  1  1
 18 36  1  0
 18 37  1  0
 22 38  1  0
 23 39  1  0
 24 40  1  0
M  END
>  <Pose ID>  (24)
24

>  <Score>  (24)
-7.540869235992432

>  <smiles>  (24)
COc1cc2cc(Nc3nccn3C)nc-2[nH]c1-c1ncc[nH]c1=O

$$$$

     RDKit          3D

 45 48  0  0  0  0  0  0  0  0999 V2000
   25.3990    9.4180   -6.7670 C   0  0  0  0  0  0  0  0  0  0  0  0
   25.2870    8.0430   -6.5670 C   0  0  0  0  0  0  0  0  0  0  0  0
   25.9120    7.1590   -7.4320 N   0  0  0  0  0  0  0  0  0  0  0  0
   26.6570    7.6480   -8.5020 C   0  0  0  0  0  0  0  0  0  0  0  0
   24.9060   10.4190   -6.0930 O   0  0  0  0  0  0  0  0  0  0  0  0
   26.7710    9.0160   -8.7030 C   0  0  0  0  0  0  0  0  0  0  0  0
   26.1430    9.9010   -7.8370 C   0  0  0  0  0  0  0  0  0  0  0  0
   27.3480    6.9990   -9.4600 N   0  0  0  0  0  0  0  0  0  0  0  0
   27.9160    7.9300  -10.3010 C   0  0  0  0  0  0  0  0  0  0  0  0
   27.4580    9.1240   -9.7020 C   0  0  0  0  0  0  0  0  0  0  0  0
   25.8670   11.0500   -5.2560 C   0  0  1  0  0  0  0  0  0  0  0  0
   28.7100    7.9280  -11.4200 N   0  0  0  0  0  0  0  0  0  0  0  0
   29.0920    9.0970  -11.9920 C   0  0  0  0  0  0  0  0  0  0  0  0
   30.4420    9.4750  -12.1680 N   0  0  0  0  0  0  0  0  0  0  0  0
   30.4610   10.7290  -12.7930 C   0  0  0  0  0  0  0  0  0  0  0  0
   29.0680   10.9650  -12.9280 C   0  0  0  0  0  0  0  0  0  0  0  0
   28.2560    9.9900  -12.4600 N   0  0  0  0  0  0  0  0  0  0  0  0
   26.7810    9.9920  -12.5140 C   0  0  1  0  0  0  0  0  0  0  0  0
   24.5340    7.5520   -5.4820 C   0  0  0  0  0  0  0  0  0  0  0  0
   24.4760    6.1410   -5.2820 C   0  0  0  0  0  0  0  0  0  0  0  0
   23.5690    6.0130   -4.1370 N   0  0  0  0  0  0  0  0  0  0  0  0
   23.2300    7.1180   -3.7980 N   0  0  0  0  0  0  0  0  0  0  0  0
   23.7760    8.1230   -4.5360 C   0  0  0  0  0  0  0  0  0  0  0  0
   22.3130    7.2930   -2.6460 C   0  0  1  0  0  0  0  0  0  0  0  0
   23.1400    7.5650   -1.4250 C   0  0  0  0  0  0  0  0  0  0  0  0
   23.6280    8.8490   -1.2420 O   0  0  0  0  0  0  0  0  0  0  0  0
   23.3770    6.5610   -0.5870 N   0  0  0  0  0  0  0  0  0  0  0  0
   25.8258    6.1434   -7.2839 H   0  0  0  0  0  0  0  0  0  0  0  0
   26.2343   10.9853   -7.9978 H   0  0  0  0  0  0  0  0  0  0  0  0
   27.7112   10.1094  -10.1203 H   0  0  0  0  0  0  0  0  0  0  0  0
   25.6045   10.8777   -4.2018 H   0  0  0  0  0  0  0  0  0  0  0  0
   26.8629   10.6294   -5.4594 H   0  0  0  0  0  0  0  0  0  0  0  0
   25.8770   12.1310   -5.4594 H   0  0  0  0  0  0  0  0  0  0  0  0
   29.0177    7.0337  -11.8280 H   0  0  0  0  0  0  0  0  0  0  0  0
   31.3146   11.3541  -13.0940 H   0  0  0  0  0  0  0  0  0  0  0  0
   28.6732   11.8843  -13.3851 H   0  0  0  0  0  0  0  0  0  0  0  0
   26.3766    9.9925  -11.4910 H   0  0  0  0  0  0  0  0  0  0  0  0
   26.4348   10.8906  -13.0456 H   0  0  0  0  0  0  0  0  0  0  0  0
   26.4323    9.0943  -13.0456 H   0  0  0  0  0  0  0  0  0  0  0  0
   24.9853    5.3461   -5.8466 H   0  0  0  0  0  0  0  0  0  0  0  0
   23.6236    9.2018   -4.3843 H   0  0  0  0  0  0  0  0  0  0  0  0
   21.6368    8.1400   -2.8338 H   0  0  0  0  0  0  0  0  0  0  0  0
   21.7085    6.3856   -2.5007 H   0  0  0  0  0  0  0  0  0  0  0  0
   23.9420    6.7192    0.2596 H   0  0  0  0  0  0  0  0  0  0  0  0
   22.9957    5.6247   -0.7841 H   0  0  0  0  0  0  0  0  0  0  0  0
  1  7  1  0
  1  2  2  0
  1  5  1  0
  2  3  1  0
  2 19  1  0
  3  4  1  0
  4  8  2  0
  4  6  1  0
  6 10  1  0
  6  7  2  0
  8  9  1  0
  9 12  1  0
  9 10  2  0
 12 13  1  0
 13 17  1  0
 13 14  2  0
 14 15  1  0
 15 16  2  0
 16 17  1  0
 17 18  1  0
 19 20  1  0
 19 23  2  0
 20 21  2  0
 21 22  1  0
 22 23  1  0
 22 24  1  0
 24 25  1  0
 25 26  2  0
 25 27  1  0
  5 11  1  0
  3 28  1  0
  7 29  1  0
 10 30  1  0
 11 31  1  1
 11 32  1  0
 11 33  1  0
 12 34  1  0
 15 35  1  0
 16 36  1  0
 18 37  1  1
 18 38  1  0
 18 39  1  0
 20 40  1  0
 23 41  1  0
 24 42  1  6
 24 43  1  0
 27 44  1  0
 27 45  1  0
M  END
>  <Pose ID>  (25)
37

>  <Score>  (25)
-7.527683258056641

>  <smiles>  (25)
COc1cc2cc(Nc3nccn3C)nc-2[nH]c1-c1cnn(CC(N)=O)c1

$$$$

     RDKit          3D

 39 42  0  0  0  0  0  0  0  0999 V2000
   25.1500    9.4100   -6.8300 C   0  0  0  0  0  0  0  0  0  0  0  0
   24.9890    8.0490   -6.5900 C   0  0  0  0  0  0  0  0  0  0  0  0
   25.6290    7.1180   -7.3960 N   0  0  0  0  0  0  0  0  0  0  0  0
   26.4360    7.5480   -8.4460 C   0  0  0  0  0  0  0  0  0  0  0  0
   24.6590   10.4490   -6.2110 O   0  0  0  0  0  0  0  0  0  0  0  0
   26.6010    8.9040   -8.6840 C   0  0  0  0  0  0  0  0  0  0  0  0
   25.9610    9.8360   -7.8790 C   0  0  0  0  0  0  0  0  0  0  0  0
   27.1490    6.8480   -9.3470 N   0  0  0  0  0  0  0  0  0  0  0  0
   27.7850    7.7340  -10.1900 C   0  0  0  0  0  0  0  0  0  0  0  0
   27.3370    8.9600   -9.6530 C   0  0  0  0  0  0  0  0  0  0  0  0
   25.6010   11.0810   -5.3530 C   0  0  1  0  0  0  0  0  0  0  0  0
   28.6290    7.6710  -11.2720 N   0  0  0  0  0  0  0  0  0  0  0  0
   29.0710    8.8070  -11.8610 C   0  0  0  0  0  0  0  0  0  0  0  0
   30.4400    9.1400  -11.9890 N   0  0  0  0  0  0  0  0  0  0  0  0
   30.5240   10.3720  -12.6510 C   0  0  0  0  0  0  0  0  0  0  0  0
   29.1490   10.6440  -12.8560 C   0  0  0  0  0  0  0  0  0  0  0  0
   28.2860    9.7090  -12.3980 N   0  0  0  0  0  0  0  0  0  0  0  0
   26.8150    9.7490  -12.5210 C   0  0  1  0  0  0  0  0  0  0  0  0
   24.2020    7.6180   -5.5650 C   0  0  0  0  0  0  0  0  0  0  0  0
   24.2580    6.2310   -5.4930 N   0  0  0  0  0  0  0  0  0  0  0  0
   23.5830    8.3420   -4.5520 C   0  0  0  0  0  0  0  0  0  0  0  0
   23.0220    7.6790   -3.4670 C   0  0  0  0  0  0  0  0  0  0  0  0
   23.0790    6.2920   -3.3950 C   0  0  0  0  0  0  0  0  0  0  0  0
   23.6970    5.5690   -4.4080 N   0  0  0  0  0  0  0  0  0  0  0  0
   25.5072    6.1109   -7.2178 H   0  0  0  0  0  0  0  0  0  0  0  0
   26.0943   10.9111   -8.0695 H   0  0  0  0  0  0  0  0  0  0  0  0
   27.6390    9.9232  -10.0901 H   0  0  0  0  0  0  0  0  0  0  0  0
   25.3243   10.8954   -4.3047 H   0  0  0  0  0  0  0  0  0  0  0  0
   26.6040   10.6724   -5.5454 H   0  0  0  0  0  0  0  0  0  0  0  0
   25.6032   12.1640   -5.5454 H   0  0  0  0  0  0  0  0  0  0  0  0
   28.9270    6.7551  -11.6369 H   0  0  0  0  0  0  0  0  0  0  0  0
   31.4087   10.9620  -12.9324 H   0  0  0  0  0  0  0  0  0  0  0  0
   28.8041   11.5603  -13.3574 H   0  0  0  0  0  0  0  0  0  0  0  0
   26.3634    9.7613  -11.5181 H   0  0  0  0  0  0  0  0  0  0  0  0
   26.5173   10.6556  -13.0683 H   0  0  0  0  0  0  0  0  0  0  0  0
   26.4685    8.8599  -13.0683 H   0  0  0  0  0  0  0  0  0  0  0  0
   23.5373    9.4396   -4.6094 H   0  0  0  0  0  0  0  0  0  0  0  0
   22.5329    8.2518   -2.6653 H   0  0  0  0  0  0  0  0  0  0  0  0
   22.6350    5.7669   -2.5364 H   0  0  0  0  0  0  0  0  0  0  0  0
  1  7  1  0
  1  2  2  0
  1  5  1  0
  2  3  1  0
  2 19  1  0
  3  4  1  0
  4  8  2  0
  4  6  1  0
  6 10  1  0
  6  7  2  0
  8  9  1  0
  9 12  1  0
  9 10  2  0
 12 13  1  0
 13 17  1  0
 13 14  2  0
 14 15  1  0
 15 16  2  0
 16 17  1  0
 17 18  1  0
 19 20  2  0
 19 21  1  0
 20 24  1  0
 21 22  2  0
 22 23  1  0
 23 24  2  0
  5 11  1  0
  3 25  1  0
  7 26  1  0
 10 27  1  0
 11 28  1  1
 11 29  1  0
 11 30  1  0
 12 31  1  0
 15 32  1  0
 16 33  1  0
 18 34  1  1
 18 35  1  0
 18 36  1  0
 21 37  1  0
 22 38  1  0
 23 39  1  0
M  END
>  <Pose ID>  (26)
27

>  <Score>  (26)
-7.525705814361572

>  <smiles>  (26)
COc1cc2cc(Nc3nccn3C)nc-2[nH]c1-c1cccnn1

$$$$

     RDKit          3D

 43 46  0  0  0  0  0  0  0  0999 V2000
   25.1500    9.4490   -6.8180 C   0  0  0  0  0  0  0  0  0  0  0  0
   24.9750    8.0900   -6.5700 C   0  0  0  0  0  0  0  0  0  0  0  0
   25.6050    7.1490   -7.3710 N   0  0  0  0  0  0  0  0  0  0  0  0
   26.4170    7.5640   -8.4230 C   0  0  0  0  0  0  0  0  0  0  0  0
   24.6690   10.4950   -6.2050 O   0  0  0  0  0  0  0  0  0  0  0  0
   26.5950    8.9170   -8.6690 C   0  0  0  0  0  0  0  0  0  0  0  0
   25.9640    9.8610   -7.8690 C   0  0  0  0  0  0  0  0  0  0  0  0
   27.1230    6.8520   -9.3210 N   0  0  0  0  0  0  0  0  0  0  0  0
   27.7670    7.7270  -10.1680 C   0  0  0  0  0  0  0  0  0  0  0  0
   27.3320    8.9600   -9.6380 C   0  0  0  0  0  0  0  0  0  0  0  0
   25.6170   11.1230   -5.3510 C   0  0  1  0  0  0  0  0  0  0  0  0
   28.6110    7.6490  -11.2500 N   0  0  0  0  0  0  0  0  0  0  0  0
   29.0640    8.7780  -11.8450 C   0  0  0  0  0  0  0  0  0  0  0  0
   30.4360    9.0970  -11.9750 N   0  0  0  0  0  0  0  0  0  0  0  0
   30.5330   10.3240  -12.6450 C   0  0  0  0  0  0  0  0  0  0  0  0
   29.1600   10.6070  -12.8510 C   0  0  0  0  0  0  0  0  0  0  0  0
   28.2880    9.6840  -12.3870 N   0  0  0  0  0  0  0  0  0  0  0  0
   26.8180    9.7380  -12.5110 C   0  0  1  0  0  0  0  0  0  0  0  0
   24.1960    7.6770   -5.5650 C   0  0  0  0  0  0  0  0  0  0  0  0
   24.2320    6.2880   -5.5460 N   0  0  0  0  0  0  0  0  0  0  0  0
   23.5880    8.3710   -4.5250 C   0  0  0  0  0  0  0  0  0  0  0  0
   23.0180    7.6760   -3.4650 C   0  0  0  0  0  0  0  0  0  0  0  0
   23.0540    6.2870   -3.4460 C   0  0  0  0  0  0  0  0  0  0  0  0
   23.6760    5.6130   -4.4040 C   0  0  0  0  0  0  0  0  0  0  0  0
   22.3600    8.4290   -2.3350 C   0  0  1  0  0  0  0  0  0  0  0  0
   25.4722    6.1442   -7.1877 H   0  0  0  0  0  0  0  0  0  0  0  0
   26.1076   10.9336   -8.0660 H   0  0  0  0  0  0  0  0  0  0  0  0
   27.6444    9.9176  -10.0801 H   0  0  0  0  0  0  0  0  0  0  0  0
   25.3422   10.9410   -4.3015 H   0  0  0  0  0  0  0  0  0  0  0  0
   26.6170   10.7081   -5.5454 H   0  0  0  0  0  0  0  0  0  0  0  0
   25.6250   12.2056   -5.5454 H   0  0  0  0  0  0  0  0  0  0  0  0
   28.9001    6.7282  -11.6097 H   0  0  0  0  0  0  0  0  0  0  0  0
   31.4233   10.9036  -12.9303 H   0  0  0  0  0  0  0  0  0  0  0  0
   28.8236   11.5232  -13.3583 H   0  0  0  0  0  0  0  0  0  0  0  0
   26.3658    9.7546  -11.5084 H   0  0  0  0  0  0  0  0  0  0  0  0
   26.5294   10.6474  -13.0585 H   0  0  0  0  0  0  0  0  0  0  0  0
   26.4634    8.8523  -13.0585 H   0  0  0  0  0  0  0  0  0  0  0  0
   23.5581    9.4705   -4.5411 H   0  0  0  0  0  0  0  0  0  0  0  0
   22.5615    5.7409   -2.6280 H   0  0  0  0  0  0  0  0  0  0  0  0
   23.7682    4.5198   -4.3239 H   0  0  0  0  0  0  0  0  0  0  0  0
   22.7112    8.0271   -1.3731 H   0  0  0  0  0  0  0  0  0  0  0  0
   22.6209    9.4954   -2.4041 H   0  0  0  0  0  0  0  0  0  0  0  0
   21.2683    8.3134   -2.4041 H   0  0  0  0  0  0  0  0  0  0  0  0
  1  7  1  0
  1  2  2  0
  1  5  1  0
  2  3  1  0
  2 19  1  0
  3  4  1  0
  4  8  2  0
  4  6  1  0
  6 10  1  0
  6  7  2  0
  8  9  1  0
  9 12  1  0
  9 10  2  0
 12 13  1  0
 13 17  1  0
 13 14  2  0
 14 15  1  0
 15 16  2  0
 16 17  1  0
 17 18  1  0
 19 20  2  0
 19 21  1  0
 20 24  1  0
 21 22  2  0
 22 23  1  0
 22 25  1  0
 23 24  2  0
  5 11  1  0
  3 26  1  0
  7 27  1  0
 10 28  1  0
 11 29  1  1
 11 30  1  0
 11 31  1  0
 12 32  1  0
 15 33  1  0
 16 34  1  0
 18 35  1  1
 18 36  1  0
 18 37  1  0
 21 38  1  0
 23 39  1  0
 24 40  1  0
 25 41  1  1
 25 42  1  0
 25 43  1  0
M  END
>  <Pose ID>  (27)
28

>  <Score>  (27)
-7.475223064422607

>  <smiles>  (27)
COc1cc2cc(Nc3nccn3C)nc-2[nH]c1-c1cc(C)ccn1

$$$$

     RDKit          3D

 47 50  0  0  0  0  0  0  0  0999 V2000
   25.1190    9.3270   -6.9300 C   0  0  0  0  0  0  0  0  0  0  0  0
   24.9570    7.9600   -6.7160 C   0  0  0  0  0  0  0  0  0  0  0  0
   25.6170    7.0470   -7.5240 N   0  0  0  0  0  0  0  0  0  0  0  0
   26.4460    7.4980   -8.5500 C   0  0  0  0  0  0  0  0  0  0  0  0
   24.6090   10.3530   -6.3050 O   0  0  0  0  0  0  0  0  0  0  0  0
   26.6090    8.8600   -8.7620 C   0  0  0  0  0  0  0  0  0  0  0  0
   25.9480    9.7750   -7.9550 C   0  0  0  0  0  0  0  0  0  0  0  0
   27.1810    6.8150   -9.4480 N   0  0  0  0  0  0  0  0  0  0  0  0
   27.8290    7.7170  -10.2620 C   0  0  0  0  0  0  0  0  0  0  0  0
   27.3650    8.9320   -9.7150 C   0  0  0  0  0  0  0  0  0  0  0  0
   25.5290   10.9760   -5.4160 C   0  0  1  0  0  0  0  0  0  0  0  0
   28.6970    7.6760  -11.3270 N   0  0  0  0  0  0  0  0  0  0  0  0
   29.1440    8.8240  -11.8890 C   0  0  0  0  0  0  0  0  0  0  0  0
   30.5170    9.1670  -11.9800 N   0  0  0  0  0  0  0  0  0  0  0  0
   30.6080   10.4100  -12.6220 C   0  0  0  0  0  0  0  0  0  0  0  0
   29.2350   10.6770  -12.8520 C   0  0  0  0  0  0  0  0  0  0  0  0
   28.3680    9.7320  -12.4250 N   0  0  0  0  0  0  0  0  0  0  0  0
   26.9010    9.7670  -12.5780 C   0  0  1  0  0  0  0  0  0  0  0  0
   24.0780    7.4810   -5.6210 C   0  0  0  0  0  0  0  0  0  0  0  0
   23.5460    6.3740   -5.6590 O   0  0  0  0  0  0  0  0  0  0  0  0
   23.7870    8.2980   -4.4670 N   0  0  0  0  0  0  0  0  0  0  0  0
   23.1770    7.8650   -3.3500 C   0  0  0  0  0  0  0  0  0  0  0  0
   22.1990    8.6690   -2.7800 N   0  0  0  0  0  0  0  0  0  0  0  0
   21.5430    8.2570   -1.6260 C   0  0  0  0  0  0  0  0  0  0  0  0
   21.8670    7.0380   -1.0430 C   0  0  0  0  0  0  0  0  0  0  0  0
   22.8460    6.2320   -1.6130 C   0  0  0  0  0  0  0  0  0  0  0  0
   23.4790    6.6340   -2.7840 C   0  0  0  0  0  0  0  0  0  0  0  0
   24.4940    5.7310   -3.4390 C   0  0  1  0  0  0  0  0  0  0  0  0
   25.4949    6.0365   -7.3664 H   0  0  0  0  0  0  0  0  0  0  0  0
   26.0789   10.8539   -8.1250 H   0  0  0  0  0  0  0  0  0  0  0  0
   27.6725    9.9027  -10.1310 H   0  0  0  0  0  0  0  0  0  0  0  0
   25.2296   10.7732   -4.3771 H   0  0  0  0  0  0  0  0  0  0  0  0
   26.5379   10.5745   -5.5918 H   0  0  0  0  0  0  0  0  0  0  0  0
   25.5307   12.0619   -5.5918 H   0  0  0  0  0  0  0  0  0  0  0  0
   29.0089    6.7677  -11.6993 H   0  0  0  0  0  0  0  0  0  0  0  0
   31.4949   11.0092  -12.8757 H   0  0  0  0  0  0  0  0  0  0  0  0
   28.8954   11.5981  -13.3483 H   0  0  0  0  0  0  0  0  0  0  0  0
   26.4289    9.7783  -11.5845 H   0  0  0  0  0  0  0  0  0  0  0  0
   26.6116   10.6723  -13.1318 H   0  0  0  0  0  0  0  0  0  0  0  0
   26.5687    8.8765  -13.1318 H   0  0  0  0  0  0  0  0  0  0  0  0
   24.0682    9.2883   -4.5021 H   0  0  0  0  0  0  0  0  0  0  0  0
   20.7686    8.8949   -1.1750 H   0  0  0  0  0  0  0  0  0  0  0  0
   21.3485    6.7105   -0.1298 H   0  0  0  0  0  0  0  0  0  0  0  0
   23.1193    5.2780   -1.1385 H   0  0  0  0  0  0  0  0  0  0  0  0
   25.0773    5.2121   -2.6641 H   0  0  0  0  0  0  0  0  0  0  0  0
   23.9755    4.9901   -4.0653 H   0  0  0  0  0  0  0  0  0  0  0  0
   25.1695    6.3322   -4.0653 H   0  0  0  0  0  0  0  0  0  0  0  0
  1  7  1  0
  1  2  2  0
  1  5  1  0
  2  3  1  0
  2 19  1  0
  3  4  1  0
  4  8  2  0
  4  6  1  0
  6 10  1  0
  6  7  2  0
  8  9  1  0
  9 12  1  0
  9 10  2  0
 19 20  2  0
 19 21  1  0
 21 22  1  0
 22 27  1  0
 22 23  2  0
 23 24  1  0
 24 25  2  0
 25 26  1  0
 26 27  2  0
 27 28  1  0
 12 13  1  0
 13 17  1  0
 13 14  2  0
 14 15  1  0
 15 16  2  0
 16 17  1  0
 17 18  1  0
  5 11  1  0
  3 29  1  0
  7 30  1  0
 10 31  1  0
 11 32  1  1
 11 33  1  0
 11 34  1  0
 12 35  1  0
 15 36  1  0
 16 37  1  0
 18 38  1  1
 18 39  1  0
 18 40  1  0
 21 41  1  0
 24 42  1  0
 25 43  1  0
 26 44  1  0
 28 45  1  1
 28 46  1  0
 28 47  1  0
M  END
>  <Pose ID>  (28)
74

>  <Score>  (28)
-7.471889019012451

>  <smiles>  (28)
COc1cc2cc(Nc3nccn3C)nc-2[nH]c1C(=O)Nc1ncccc1C

$$$$

     RDKit          3D

 46 49  0  0  0  0  0  0  0  0999 V2000
   25.2300    9.3450   -6.9190 C   0  0  0  0  0  0  0  0  0  0  0  0
   25.1290    7.9670   -6.7330 C   0  0  0  0  0  0  0  0  0  0  0  0
   25.7920    7.0970   -7.5900 N   0  0  0  0  0  0  0  0  0  0  0  0
   26.5640    7.6050   -8.6330 C   0  0  0  0  0  0  0  0  0  0  0  0
   24.7060   10.3330   -6.2530 O   0  0  0  0  0  0  0  0  0  0  0  0
   26.6690    8.9750   -8.8150 C   0  0  0  0  0  0  0  0  0  0  0  0
   26.0050    9.8450   -7.9620 C   0  0  0  0  0  0  0  0  0  0  0  0
   27.2900    6.9710   -9.5710 N   0  0  0  0  0  0  0  0  0  0  0  0
   27.8740    7.9170  -10.3870 C   0  0  0  0  0  0  0  0  0  0  0  0
   27.3870    9.1010   -9.7910 C   0  0  0  0  0  0  0  0  0  0  0  0
   25.6340   10.9710   -5.3810 C   0  0  1  0  0  0  0  0  0  0  0  0
   28.7010    7.9350  -11.4820 N   0  0  0  0  0  0  0  0  0  0  0  0
   29.0870    9.1120  -12.0290 C   0  0  0  0  0  0  0  0  0  0  0  0
   30.4390    9.5080  -12.1630 N   0  0  0  0  0  0  0  0  0  0  0  0
   30.4630   10.7670  -12.7760 C   0  0  0  0  0  0  0  0  0  0  0  0
   29.0720   10.9900  -12.9510 C   0  0  0  0  0  0  0  0  0  0  0  0
   28.2570   10.0020  -12.5160 N   0  0  0  0  0  0  0  0  0  0  0  0
   26.7850    9.9850  -12.6170 C   0  0  1  0  0  0  0  0  0  0  0  0
   26.1300   10.4050  -13.9330 C   0  0  1  0  0  0  0  0  0  0  0  0
   24.3080    7.4280   -5.6190 C   0  0  0  0  0  0  0  0  0  0  0  0
   23.8180    6.3030   -5.6650 O   0  0  0  0  0  0  0  0  0  0  0  0
   24.0330    8.2070   -4.4370 N   0  0  0  0  0  0  0  0  0  0  0  0
   23.3720    7.7750   -3.3780 C   0  0  0  0  0  0  0  0  0  0  0  0
   23.1300    6.4330   -3.1150 C   0  0  0  0  0  0  0  0  0  0  0  0
   22.4800    6.0600   -1.9440 N   0  0  0  0  0  0  0  0  0  0  0  0
   22.0710    7.0310   -1.0370 C   0  0  0  0  0  0  0  0  0  0  0  0
   22.3140    8.3740   -1.3010 C   0  0  0  0  0  0  0  0  0  0  0  0
   22.9660    8.7640   -2.4540 N   0  0  0  0  0  0  0  0  0  0  0  0
   25.7130    6.0790   -7.4546 H   0  0  0  0  0  0  0  0  0  0  0  0
   26.0911   10.9316   -8.1101 H   0  0  0  0  0  0  0  0  0  0  0  0
   27.6446   10.0931  -10.1904 H   0  0  0  0  0  0  0  0  0  0  0  0
   25.3497   10.7755   -4.3365 H   0  0  0  0  0  0  0  0  0  0  0  0
   26.6433   10.5750   -5.5665 H   0  0  0  0  0  0  0  0  0  0  0  0
   25.6257   12.0552   -5.5665 H   0  0  0  0  0  0  0  0  0  0  0  0
   29.0299    7.0483  -11.8900 H   0  0  0  0  0  0  0  0  0  0  0  0
   31.3185   11.4036  -13.0458 H   0  0  0  0  0  0  0  0  0  0  0  0
   28.6812   11.9092  -13.4118 H   0  0  0  0  0  0  0  0  0  0  0  0
   26.4589    8.9554  -12.4083 H   0  0  0  0  0  0  0  0  0  0  0  0
   26.4614   10.7559  -11.9021 H   0  0  0  0  0  0  0  0  0  0  0  0
   25.2214   10.9876  -13.7208 H   0  0  0  0  0  0  0  0  0  0  0  0
   26.8335   11.0209  -14.5125 H   0  0  0  0  0  0  0  0  0  0  0  0
   25.8639    9.5087  -14.5125 H   0  0  0  0  0  0  0  0  0  0  0  0
   24.3793    9.1768   -4.4169 H   0  0  0  0  0  0  0  0  0  0  0  0
   23.4527    5.6650   -3.8334 H   0  0  0  0  0  0  0  0  0  0  0  0
   21.5554    6.7367   -0.1110 H   0  0  0  0  0  0  0  0  0  0  0  0
   21.9822    9.1368   -0.5812 H   0  0  0  0  0  0  0  0  0  0  0  0
  1  7  1  0
  1  2  2  0
  1  5  1  0
  2  3  1  0
  2 20  1  0
  3  4  1  0
  4  8  2  0
  4  6  1  0
  6 10  1  0
  6  7  2  0
  8  9  1  0
  9 12  1  0
  9 10  2  0
 12 13  1  0
 13 17  1  0
 13 14  2  0
 14 15  1  0
 15 16  2  0
 16 17  1  0
 17 18  1  0
 18 19  1  0
 20 21  2  0
 20 22  1  0
 22 23  1  0
 23 24  2  0
 23 28  1  0
 24 25  1  0
 25 26  2  0
 26 27  1  0
 27 28  2  0
  5 11  1  0
  3 29  1  0
  7 30  1  0
 10 31  1  0
 11 32  1  1
 11 33  1  0
 11 34  1  0
 12 35  1  0
 15 36  1  0
 16 37  1  0
 18 38  1  1
 18 39  1  0
 19 40  1  1
 19 41  1  0
 19 42  1  0
 22 43  1  0
 24 44  1  0
 26 45  1  0
 27 46  1  0
M  END
>  <Pose ID>  (29)
6

>  <Score>  (29)
-7.470927715301514

>  <smiles>  (29)
CCn1ccnc1Nc1cc2cc(OC)c(C(=O)Nc3cnccn3)[nH]c-2n1

$$$$

     RDKit          3D

 45 48  0  0  0  0  0  0  0  0999 V2000
   25.1360    9.4450   -6.7500 C   0  0  0  0  0  0  0  0  0  0  0  0
   24.8850    8.0960   -6.5050 C   0  0  0  0  0  0  0  0  0  0  0  0
   25.4750    7.1260   -7.3010 N   0  0  0  0  0  0  0  0  0  0  0  0
   26.3200    7.5010   -8.3450 C   0  0  0  0  0  0  0  0  0  0  0  0
   24.7010   10.5130   -6.1380 O   0  0  0  0  0  0  0  0  0  0  0  0
   26.5700    8.8430   -8.5840 C   0  0  0  0  0  0  0  0  0  0  0  0
   25.9790    9.8140   -7.7900 C   0  0  0  0  0  0  0  0  0  0  0  0
   26.9950    6.7520   -9.2340 N   0  0  0  0  0  0  0  0  0  0  0  0
   27.6950    7.5930  -10.0720 C   0  0  0  0  0  0  0  0  0  0  0  0
   27.3190    8.8480   -9.5450 C   0  0  0  0  0  0  0  0  0  0  0  0
   25.6690   11.0920   -5.2730 C   0  0  1  0  0  0  0  0  0  0  0  0
   28.5440    7.4750  -11.1450 N   0  0  0  0  0  0  0  0  0  0  0  0
   29.0620    8.5780  -11.7330 C   0  0  0  0  0  0  0  0  0  0  0  0
   30.4520    8.8260  -11.8470 N   0  0  0  0  0  0  0  0  0  0  0  0
   30.6200   10.0480  -12.5150 C   0  0  0  0  0  0  0  0  0  0  0  0
   29.2650   10.4030  -12.7350 C   0  0  0  0  0  0  0  0  0  0  0  0
   28.3400    9.5260  -12.2820 N   0  0  0  0  0  0  0  0  0  0  0  0
   26.8780    9.6540  -12.4210 C   0  0  1  0  0  0  0  0  0  0  0  0
   24.0710    7.5180   -5.5380 C   0  0  0  0  0  0  0  0  0  0  0  0
   22.7480    7.9410   -5.4750 C   0  0  0  0  0  0  0  0  0  0  0  0
   24.5550    6.6060   -4.6060 C   0  0  0  0  0  0  0  0  0  0  0  0
   21.9090    7.4490   -4.4830 N   0  0  0  0  0  0  0  0  0  0  0  0
   22.3930    6.5380   -3.5520 C   0  0  0  0  0  0  0  0  0  0  0  0
   23.6950    6.1370   -3.5600 C   0  0  0  0  0  0  0  0  0  0  0  0
   22.3150    8.7590   -6.3070 O   0  0  0  0  0  0  0  0  0  0  0  0
   24.1720    5.3030   -2.5920 O   0  0  0  0  0  0  0  0  0  0  0  0
   21.4560    5.9800   -2.5090 C   0  0  1  0  0  0  0  0  0  0  0  0
   25.2892    6.1290   -7.1213 H   0  0  0  0  0  0  0  0  0  0  0  0
   26.1782   10.8782   -7.9842 H   0  0  0  0  0  0  0  0  0  0  0  0
   27.6859    9.7882   -9.9826 H   0  0  0  0  0  0  0  0  0  0  0  0
   25.3771   10.9174   -4.2269 H   0  0  0  0  0  0  0  0  0  0  0  0
   26.6505   10.6326   -5.4613 H   0  0  0  0  0  0  0  0  0  0  0  0
   25.7285   12.1741   -5.4613 H   0  0  0  0  0  0  0  0  0  0  0  0
   28.7879    6.5410  -11.5044 H   0  0  0  0  0  0  0  0  0  0  0  0
   31.5423   10.5804  -12.7904 H   0  0  0  0  0  0  0  0  0  0  0  0
   28.9826   11.3364  -13.2440 H   0  0  0  0  0  0  0  0  0  0  0  0
   26.4169    9.6944  -11.4231 H   0  0  0  0  0  0  0  0  0  0  0  0
   26.6414   10.5763  -12.9718 H   0  0  0  0  0  0  0  0  0  0  0  0
   26.4847    8.7869  -12.9718 H   0  0  0  0  0  0  0  0  0  0  0  0
   25.5926    6.2466   -4.6715 H   0  0  0  0  0  0  0  0  0  0  0  0
   20.9280    7.7596   -4.4376 H   0  0  0  0  0  0  0  0  0  0  0  0
   23.5707    4.9839   -1.8732 H   0  0  0  0  0  0  0  0  0  0  0  0
   21.8442    6.2112   -1.5061 H   0  0  0  0  0  0  0  0  0  0  0  0
   20.4608    6.4327   -2.6303 H   0  0  0  0  0  0  0  0  0  0  0  0
   21.3799    4.8894   -2.6303 H   0  0  0  0  0  0  0  0  0  0  0  0
  1  7  1  0
  1  2  2  0
  1  5  1  0
  2  3  1  0
  2 19  1  0
  3  4  1  0
  4  8  2  0
  4  6  1  0
  6 10  1  0
  6  7  2  0
  8  9  1  0
  9 12  1  0
  9 10  2  0
 19 20  1  0
 19 21  2  0
 20 25  2  0
 20 22  1  0
 21 24  1  0
 22 23  1  0
 23 24  2  0
 23 27  1  0
 24 26  1  0
 12 13  1  0
 13 17  1  0
 13 14  2  0
 14 15  1  0
 15 16  2  0
 16 17  1  0
 17 18  1  0
  5 11  1  0
  3 28  1  0
  7 29  1  0
 10 30  1  0
 11 31  1  1
 11 32  1  0
 11 33  1  0
 12 34  1  0
 15 35  1  0
 16 36  1  0
 18 37  1  1
 18 38  1  0
 18 39  1  0
 21 40  1  0
 22 41  1  0
 26 42  1  0
 27 43  1  1
 27 44  1  0
 27 45  1  0
M  END
>  <Pose ID>  (30)
53

>  <Score>  (30)
-7.440430164337158

>  <smiles>  (30)
COc1cc2cc(Nc3nccn3C)nc-2[nH]c1-c1cc(O)c(C)[nH]c1=O

$$$$

     RDKit          3D

 41 44  0  0  0  0  0  0  0  0999 V2000
   25.1510    9.4410   -6.8170 C   0  0  0  0  0  0  0  0  0  0  0  0
   24.9820    8.0810   -6.5710 C   0  0  0  0  0  0  0  0  0  0  0  0
   25.6150    7.1440   -7.3740 N   0  0  0  0  0  0  0  0  0  0  0  0
   26.4240    7.5630   -8.4270 C   0  0  0  0  0  0  0  0  0  0  0  0
   24.6670   10.4840   -6.2020 O   0  0  0  0  0  0  0  0  0  0  0  0
   26.5960    8.9170   -8.6710 C   0  0  0  0  0  0  0  0  0  0  0  0
   25.9620    9.8580   -7.8690 C   0  0  0  0  0  0  0  0  0  0  0  0
   27.1310    6.8560   -9.3270 N   0  0  0  0  0  0  0  0  0  0  0  0
   27.7710    7.7340  -10.1730 C   0  0  0  0  0  0  0  0  0  0  0  0
   27.3310    8.9650   -9.6410 C   0  0  0  0  0  0  0  0  0  0  0  0
   25.6140   11.1140   -5.3480 C   0  0  1  0  0  0  0  0  0  0  0  0
   28.6130    7.6610  -11.2570 N   0  0  0  0  0  0  0  0  0  0  0  0
   29.0610    8.7930  -11.8510 C   0  0  0  0  0  0  0  0  0  0  0  0
   30.4320    9.1180  -11.9820 N   0  0  0  0  0  0  0  0  0  0  0  0
   30.5230   10.3460  -12.6500 C   0  0  0  0  0  0  0  0  0  0  0  0
   29.1490   10.6240  -12.8540 C   0  0  0  0  0  0  0  0  0  0  0  0
   28.2810    9.6970  -12.3900 N   0  0  0  0  0  0  0  0  0  0  0  0
   26.8100    9.7450  -12.5120 C   0  0  1  0  0  0  0  0  0  0  0  0
   24.2060    7.6630   -5.5660 C   0  0  0  0  0  0  0  0  0  0  0  0
   24.2480    6.2740   -5.5490 N   0  0  0  0  0  0  0  0  0  0  0  0
   23.5970    8.3530   -4.5240 C   0  0  0  0  0  0  0  0  0  0  0  0
   23.0310    7.6540   -3.4640 C   0  0  0  0  0  0  0  0  0  0  0  0
   23.0730    6.2650   -3.4470 C   0  0  0  0  0  0  0  0  0  0  0  0
   23.6960    5.5950   -4.4070 C   0  0  0  0  0  0  0  0  0  0  0  0
   22.4670    5.5850   -2.4330 O   0  0  0  0  0  0  0  0  0  0  0  0
   25.4867    6.1384   -7.1915 H   0  0  0  0  0  0  0  0  0  0  0  0
   26.1007   10.9315   -8.0651 H   0  0  0  0  0  0  0  0  0  0  0  0
   27.6381    9.9246  -10.0825 H   0  0  0  0  0  0  0  0  0  0  0  0
   25.3397   10.9315   -4.2985 H   0  0  0  0  0  0  0  0  0  0  0  0
   26.6148   10.7011   -5.5425 H   0  0  0  0  0  0  0  0  0  0  0  0
   25.6199   12.1966   -5.5425 H   0  0  0  0  0  0  0  0  0  0  0  0
   28.9045    6.7419  -11.6191 H   0  0  0  0  0  0  0  0  0  0  0  0
   31.4107   10.9296  -12.9355 H   0  0  0  0  0  0  0  0  0  0  0  0
   28.8085   11.5396  -13.3598 H   0  0  0  0  0  0  0  0  0  0  0  0
   26.3592    9.7597  -11.5087 H   0  0  0  0  0  0  0  0  0  0  0  0
   26.5169   10.6532  -13.0591 H   0  0  0  0  0  0  0  0  0  0  0  0
   26.4583    8.8579  -13.0591 H   0  0  0  0  0  0  0  0  0  0  0  0
   23.5630    9.4524   -4.5383 H   0  0  0  0  0  0  0  0  0  0  0  0
   22.5501    8.2001   -2.6391 H   0  0  0  0  0  0  0  0  0  0  0  0
   23.7923    4.5020   -4.3289 H   0  0  0  0  0  0  0  0  0  0  0  0
   22.4935    4.5955   -2.4154 H   0  0  0  0  0  0  0  0  0  0  0  0
  1  7  1  0
  1  2  2  0
  1  5  1  0
  2  3  1  0
  2 19  1  0
  3  4  1  0
  4  8  2  0
  4  6  1  0
  6 10  1  0
  6  7  2  0
  8  9  1  0
  9 12  1  0
  9 10  2  0
 12 13  1  0
 13 17  1  0
 13 14  2  0
 14 15  1  0
 15 16  2  0
 16 17  1  0
 17 18  1  0
 19 20  2  0
 19 21  1  0
 20 24  1  0
 21 22  2  0
 22 23  1  0
 23 24  2  0
 23 25  1  0
  5 11  1  0
  3 26  1  0
  7 27  1  0
 10 28  1  0
 11 29  1  1
 11 30  1  0
 11 31  1  0
 12 32  1  0
 15 33  1  0
 16 34  1  0
 18 35  1  1
 18 36  1  0
 18 37  1  0
 21 38  1  0
 22 39  1  0
 24 40  1  0
 25 41  1  0
M  END
>  <Pose ID>  (31)
29

>  <Score>  (31)
-7.438304901123047

>  <smiles>  (31)
COc1cc2cc(Nc3nccn3C)nc-2[nH]c1-c1ccc(O)cn1

$$$$

     RDKit          3D

 41 44  0  0  0  0  0  0  0  0999 V2000
   25.1500    9.4490   -6.8180 C   0  0  0  0  0  0  0  0  0  0  0  0
   24.9750    8.0900   -6.5700 C   0  0  0  0  0  0  0  0  0  0  0  0
   25.6050    7.1490   -7.3710 N   0  0  0  0  0  0  0  0  0  0  0  0
   26.4170    7.5640   -8.4230 C   0  0  0  0  0  0  0  0  0  0  0  0
   24.6690   10.4950   -6.2050 O   0  0  0  0  0  0  0  0  0  0  0  0
   26.5950    8.9170   -8.6690 C   0  0  0  0  0  0  0  0  0  0  0  0
   25.9640    9.8610   -7.8690 C   0  0  0  0  0  0  0  0  0  0  0  0
   27.1230    6.8520   -9.3210 N   0  0  0  0  0  0  0  0  0  0  0  0
   27.7670    7.7270  -10.1680 C   0  0  0  0  0  0  0  0  0  0  0  0
   27.3320    8.9600   -9.6380 C   0  0  0  0  0  0  0  0  0  0  0  0
   25.6170   11.1230   -5.3510 C   0  0  1  0  0  0  0  0  0  0  0  0
   28.6110    7.6490  -11.2500 N   0  0  0  0  0  0  0  0  0  0  0  0
   29.0640    8.7780  -11.8450 C   0  0  0  0  0  0  0  0  0  0  0  0
   30.4360    9.0970  -11.9750 N   0  0  0  0  0  0  0  0  0  0  0  0
   30.5330   10.3240  -12.6450 C   0  0  0  0  0  0  0  0  0  0  0  0
   29.1600   10.6070  -12.8510 C   0  0  0  0  0  0  0  0  0  0  0  0
   28.2880    9.6840  -12.3870 N   0  0  0  0  0  0  0  0  0  0  0  0
   26.8180    9.7380  -12.5110 C   0  0  1  0  0  0  0  0  0  0  0  0
   24.1960    7.6770   -5.5650 C   0  0  0  0  0  0  0  0  0  0  0  0
   24.2320    6.2880   -5.5460 N   0  0  0  0  0  0  0  0  0  0  0  0
   23.5880    8.3710   -4.5250 C   0  0  0  0  0  0  0  0  0  0  0  0
   23.0180    7.6760   -3.4650 C   0  0  0  0  0  0  0  0  0  0  0  0
   23.0540    6.2870   -3.4460 C   0  0  0  0  0  0  0  0  0  0  0  0
   23.6760    5.6130   -4.4040 C   0  0  0  0  0  0  0  0  0  0  0  0
   23.5510    9.7340   -4.5450 O   0  0  0  0  0  0  0  0  0  0  0  0
   25.4722    6.1442   -7.1877 H   0  0  0  0  0  0  0  0  0  0  0  0
   26.1076   10.9336   -8.0660 H   0  0  0  0  0  0  0  0  0  0  0  0
   27.6444    9.9176  -10.0801 H   0  0  0  0  0  0  0  0  0  0  0  0
   25.3422   10.9410   -4.3015 H   0  0  0  0  0  0  0  0  0  0  0  0
   26.6170   10.7081   -5.5454 H   0  0  0  0  0  0  0  0  0  0  0  0
   25.6250   12.2056   -5.5454 H   0  0  0  0  0  0  0  0  0  0  0  0
   28.9001    6.7282  -11.6097 H   0  0  0  0  0  0  0  0  0  0  0  0
   31.4233   10.9036  -12.9303 H   0  0  0  0  0  0  0  0  0  0  0  0
   28.8236   11.5232  -13.3583 H   0  0  0  0  0  0  0  0  0  0  0  0
   26.3658    9.7546  -11.5084 H   0  0  0  0  0  0  0  0  0  0  0  0
   26.5294   10.6474  -13.0585 H   0  0  0  0  0  0  0  0  0  0  0  0
   26.4634    8.8523  -13.0585 H   0  0  0  0  0  0  0  0  0  0  0  0
   22.5385    8.2253   -2.6413 H   0  0  0  0  0  0  0  0  0  0  0  0
   22.5615    5.7409   -2.6280 H   0  0  0  0  0  0  0  0  0  0  0  0
   23.7682    4.5198   -4.3239 H   0  0  0  0  0  0  0  0  0  0  0  0
   23.1181   10.2283   -3.8045 H   0  0  0  0  0  0  0  0  0  0  0  0
  1  7  1  0
  1  2  2  0
  1  5  1  0
  2  3  1  0
  2 19  1  0
  3  4  1  0
  4  8  2  0
  4  6  1  0
  6 10  1  0
  6  7  2  0
  8  9  1  0
  9 12  1  0
  9 10  2  0
 12 13  1  0
 13 17  1  0
 13 14  2  0
 14 15  1  0
 15 16  2  0
 16 17  1  0
 17 18  1  0
 19 20  2  0
 19 21  1  0
 20 24  1  0
 21 25  1  0
 21 22  2  0
 22 23  1  0
 23 24  2  0
  5 11  1  0
  3 26  1  0
  7 27  1  0
 10 28  1  0
 11 29  1  1
 11 30  1  0
 11 31  1  0
 12 32  1  0
 15 33  1  0
 16 34  1  0
 18 35  1  1
 18 36  1  0
 18 37  1  0
 22 38  1  0
 23 39  1  0
 24 40  1  0
 25 41  1  0
M  END
>  <Pose ID>  (32)
33

>  <Score>  (32)
-7.429307460784912

>  <smiles>  (32)
COc1cc2cc(Nc3nccn3C)nc-2[nH]c1-c1ncccc1O

$$$$

     RDKit          3D

 47 50  0  0  0  0  0  0  0  0999 V2000
   25.2280    9.3460   -6.9180 C   0  0  0  0  0  0  0  0  0  0  0  0
   25.1260    7.9680   -6.7320 C   0  0  0  0  0  0  0  0  0  0  0  0
   25.7880    7.0980   -7.5890 N   0  0  0  0  0  0  0  0  0  0  0  0
   26.5610    7.6050   -8.6320 C   0  0  0  0  0  0  0  0  0  0  0  0
   24.7050   10.3350   -6.2510 O   0  0  0  0  0  0  0  0  0  0  0  0
   26.6670    8.9750   -8.8130 C   0  0  0  0  0  0  0  0  0  0  0  0
   26.0040    9.8460   -7.9600 C   0  0  0  0  0  0  0  0  0  0  0  0
   27.2860    6.9710   -9.5690 N   0  0  0  0  0  0  0  0  0  0  0  0
   27.8710    7.9170  -10.3850 C   0  0  0  0  0  0  0  0  0  0  0  0
   27.3850    9.1020   -9.7890 C   0  0  0  0  0  0  0  0  0  0  0  0
   25.6330   10.9710   -5.3780 C   0  0  1  0  0  0  0  0  0  0  0  0
   28.6980    7.9350  -11.4800 N   0  0  0  0  0  0  0  0  0  0  0  0
   29.0860    9.1120  -12.0270 C   0  0  0  0  0  0  0  0  0  0  0  0
   30.4380    9.5060  -12.1610 N   0  0  0  0  0  0  0  0  0  0  0  0
   30.4630   10.7650  -12.7730 C   0  0  0  0  0  0  0  0  0  0  0  0
   29.0730   10.9900  -12.9480 C   0  0  0  0  0  0  0  0  0  0  0  0
   28.2570   10.0030  -12.5140 N   0  0  0  0  0  0  0  0  0  0  0  0
   26.7840    9.9870  -12.6140 C   0  0  1  0  0  0  0  0  0  0  0  0
   26.1300   10.4090  -13.9310 C   0  0  1  0  0  0  0  0  0  0  0  0
   24.3030    7.4300   -5.6180 C   0  0  0  0  0  0  0  0  0  0  0  0
   23.8130    6.3050   -5.6650 O   0  0  0  0  0  0  0  0  0  0  0  0
   24.0290    8.2080   -4.4360 N   0  0  0  0  0  0  0  0  0  0  0  0
   23.3710    7.7930   -3.3660 C   0  0  0  0  0  0  0  0  0  0  0  0
   23.1260    6.4480   -3.1140 C   0  0  0  0  0  0  0  0  0  0  0  0
   22.4720    6.0680   -1.9470 N   0  0  0  0  0  0  0  0  0  0  0  0
   22.0650    7.0330   -1.0340 C   0  0  0  0  0  0  0  0  0  0  0  0
   22.3100    8.3780   -1.2860 C   0  0  0  0  0  0  0  0  0  0  0  0
   22.9630    8.7530   -2.4660 C   0  0  0  0  0  0  0  0  0  0  0  0
   25.7077    6.0801   -7.4539 H   0  0  0  0  0  0  0  0  0  0  0  0
   26.0917   10.9325   -8.1074 H   0  0  0  0  0  0  0  0  0  0  0  0
   27.6431   10.0941  -10.1879 H   0  0  0  0  0  0  0  0  0  0  0  0
   25.3475   10.7753   -4.3339 H   0  0  0  0  0  0  0  0  0  0  0  0
   26.6419   10.5736   -5.5629 H   0  0  0  0  0  0  0  0  0  0  0  0
   25.6264   12.0553   -5.5629 H   0  0  0  0  0  0  0  0  0  0  0  0
   29.0257    7.0481  -11.8885 H   0  0  0  0  0  0  0  0  0  0  0  0
   31.3193   11.4008  -13.0424 H   0  0  0  0  0  0  0  0  0  0  0  0
   28.6835   11.9101  -13.4081 H   0  0  0  0  0  0  0  0  0  0  0  0
   26.4570    8.9575  -12.4060 H   0  0  0  0  0  0  0  0  0  0  0  0
   26.4605   10.7567  -11.8978 H   0  0  0  0  0  0  0  0  0  0  0  0
   25.2230   10.9942  -13.7190 H   0  0  0  0  0  0  0  0  0  0  0  0
   26.8353   11.0228  -14.5105 H   0  0  0  0  0  0  0  0  0  0  0  0
   25.8614    9.5134  -14.5105 H   0  0  0  0  0  0  0  0  0  0  0  0
   24.3779    9.1770   -4.4232 H   0  0  0  0  0  0  0  0  0  0  0  0
   23.4492    5.6848   -3.8372 H   0  0  0  0  0  0  0  0  0  0  0  0
   21.5483    6.7324   -0.1106 H   0  0  0  0  0  0  0  0  0  0  0  0
   21.9925    9.1432   -0.5623 H   0  0  0  0  0  0  0  0  0  0  0  0
   23.1508    9.8165   -2.6751 H   0  0  0  0  0  0  0  0  0  0  0  0
  1  7  1  0
  1  2  2  0
  1  5  1  0
  2  3  1  0
  2 20  1  0
  3  4  1  0
  4  8  2  0
  4  6  1  0
  6 10  1  0
  6  7  2  0
  8  9  1  0
  9 12  1  0
  9 10  2  0
 12 13  1  0
 13 17  1  0
 13 14  2  0
 14 15  1  0
 15 16  2  0
 16 17  1  0
 17 18  1  0
 18 19  1  0
 20 21  2  0
 20 22  1  0
 22 23  1  0
 23 24  2  0
 23 28  1  0
 24 25  1  0
 25 26  2  0
 26 27  1  0
 27 28  2  0
  5 11  1  0
  3 29  1  0
  7 30  1  0
 10 31  1  0
 11 32  1  1
 11 33  1  0
 11 34  1  0
 12 35  1  0
 15 36  1  0
 16 37  1  0
 18 38  1  1
 18 39  1  0
 19 40  1  1
 19 41  1  0
 19 42  1  0
 22 43  1  0
 24 44  1  0
 26 45  1  0
 27 46  1  0
 28 47  1  0
M  END
>  <Pose ID>  (33)
7

>  <Score>  (33)
-7.42050313949585

>  <smiles>  (33)
CCn1ccnc1Nc1cc2cc(OC)c(C(=O)Nc3cccnc3)[nH]c-2n1

$$$$

     RDKit          3D

 45 48  0  0  0  0  0  0  0  0999 V2000
   25.2100    9.4200   -6.8840 C   0  0  0  0  0  0  0  0  0  0  0  0
   25.0410    8.0580   -6.6640 C   0  0  0  0  0  0  0  0  0  0  0  0
   25.6840    7.1380   -7.4840 N   0  0  0  0  0  0  0  0  0  0  0  0
   26.4970    7.5830   -8.5240 C   0  0  0  0  0  0  0  0  0  0  0  0
   24.7160   10.4510   -6.2510 O   0  0  0  0  0  0  0  0  0  0  0  0
   26.6650    8.9430   -8.7390 C   0  0  0  0  0  0  0  0  0  0  0  0
   26.0240    9.8620   -7.9230 C   0  0  0  0  0  0  0  0  0  0  0  0
   27.2130    6.8950   -9.4310 N   0  0  0  0  0  0  0  0  0  0  0  0
   27.8520    7.7910  -10.2600 C   0  0  0  0  0  0  0  0  0  0  0  0
   27.4060    9.0130   -9.7050 C   0  0  0  0  0  0  0  0  0  0  0  0
   25.6550   11.0700   -5.3800 C   0  0  1  0  0  0  0  0  0  0  0  0
   28.7030    7.7420  -11.3380 N   0  0  0  0  0  0  0  0  0  0  0  0
   29.1480    8.8900  -11.9080 C   0  0  0  0  0  0  0  0  0  0  0  0
   30.5190    9.2210  -12.0230 N   0  0  0  0  0  0  0  0  0  0  0  0
   30.6090   10.4630  -12.6680 C   0  0  0  0  0  0  0  0  0  0  0  0
   29.2350   10.7410  -12.8730 C   0  0  0  0  0  0  0  0  0  0  0  0
   28.3670    9.8000  -12.4330 N   0  0  0  0  0  0  0  0  0  0  0  0
   26.8990    9.8450  -12.5620 C   0  0  1  0  0  0  0  0  0  0  0  0
   24.2110    7.8760   -5.5950 N   0  0  0  0  0  0  0  0  0  0  0  0
   23.3540    6.6820   -5.5280 C   0  0  1  0  0  0  0  0  0  0  0  0
   23.6320    8.7400   -4.8280 C   0  0  0  0  0  0  0  0  0  0  0  0
   23.9700    8.9030   -3.4900 N   0  0  0  0  0  0  0  0  0  0  0  0
   23.2990    9.8390   -2.7130 C   0  0  0  0  0  0  0  0  0  0  0  0
   22.2900   10.6120   -3.2720 C   0  0  0  0  0  0  0  0  0  0  0  0
   21.9510   10.4500   -4.6100 C   0  0  0  0  0  0  0  0  0  0  0  0
   22.6220    9.5140   -5.3890 C   0  0  0  0  0  0  0  0  0  0  0  0
   21.4260   11.8180   -2.2700 Cl  0  0  0  0  0  0  0  0  0  0  0  0
   25.5595    6.1283   -7.3228 H   0  0  0  0  0  0  0  0  0  0  0  0
   26.1585   10.9399   -8.0964 H   0  0  0  0  0  0  0  0  0  0  0  0
   27.7134    9.9819  -10.1253 H   0  0  0  0  0  0  0  0  0  0  0  0
   25.3669   10.8801   -4.3355 H   0  0  0  0  0  0  0  0  0  0  0  0
   26.6565   10.6544   -5.5655 H   0  0  0  0  0  0  0  0  0  0  0  0
   25.6678   12.1542   -5.5655 H   0  0  0  0  0  0  0  0  0  0  0  0
   29.0037    6.8315  -11.7141 H   0  0  0  0  0  0  0  0  0  0  0  0
   31.4961   11.0545  -12.9385 H   0  0  0  0  0  0  0  0  0  0  0  0
   28.8939   11.6662  -13.3606 H   0  0  0  0  0  0  0  0  0  0  0  0
   26.4432    9.8590  -11.5610 H   0  0  0  0  0  0  0  0  0  0  0  0
   26.6068   10.7525  -13.1106 H   0  0  0  0  0  0  0  0  0  0  0  0
   26.5517    8.9571  -13.1106 H   0  0  0  0  0  0  0  0  0  0  0  0
   23.1680    6.4228   -4.4753 H   0  0  0  0  0  0  0  0  0  0  0  0
   22.3970    6.8890   -6.0293 H   0  0  0  0  0  0  0  0  0  0  0  0
   23.8563    5.8415   -6.0293 H   0  0  0  0  0  0  0  0  0  0  0  0
   23.5673    9.9679   -1.6540 H   0  0  0  0  0  0  0  0  0  0  0  0
   21.1517   11.0624   -5.0528 H   0  0  0  0  0  0  0  0  0  0  0  0
   22.3542    9.3858   -6.4482 H   0  0  0  0  0  0  0  0  0  0  0  0
  1  7  1  0
  1  2  2  0
  1  5  1  0
  2  3  1  0
  2 19  1  0
  3  4  1  0
  4  8  2  0
  4  6  1  0
  6 10  1  0
  6  7  2  0
  8  9  1  0
  9 12  1  0
  9 10  2  0
 19 20  1  0
 19 21  1  0
 21 26  1  0
 21 22  2  0
 22 23  1  0
 23 24  2  0
 24 25  1  0
 24 27  1  0
 25 26  2  0
 12 13  1  0
 13 17  1  0
 13 14  2  0
 14 15  1  0
 15 16  2  0
 16 17  1  0
 17 18  1  0
  5 11  1  0
  3 28  1  0
  7 29  1  0
 10 30  1  0
 11 31  1  1
 11 32  1  0
 11 33  1  0
 12 34  1  0
 15 35  1  0
 16 36  1  0
 18 37  1  1
 18 38  1  0
 18 39  1  0
 20 40  1  1
 20 41  1  0
 20 42  1  0
 23 43  1  0
 25 44  1  0
 26 45  1  0
M  END
>  <Pose ID>  (34)
122

>  <Score>  (34)
-7.419530391693115

>  <smiles>  (34)
COc1cc2cc(Nc3nccn3C)nc-2[nH]c1N(C)c1ccc(Cl)cn1

$$$$

     RDKit          3D

 40 43  0  0  0  0  0  0  0  0999 V2000
   25.1500    9.4490   -6.8180 C   0  0  0  0  0  0  0  0  0  0  0  0
   24.9750    8.0900   -6.5700 C   0  0  0  0  0  0  0  0  0  0  0  0
   25.6050    7.1490   -7.3710 N   0  0  0  0  0  0  0  0  0  0  0  0
   26.4170    7.5640   -8.4230 C   0  0  0  0  0  0  0  0  0  0  0  0
   24.6690   10.4950   -6.2050 O   0  0  0  0  0  0  0  0  0  0  0  0
   26.5950    8.9170   -8.6690 C   0  0  0  0  0  0  0  0  0  0  0  0
   25.9640    9.8610   -7.8690 C   0  0  0  0  0  0  0  0  0  0  0  0
   27.1230    6.8520   -9.3210 N   0  0  0  0  0  0  0  0  0  0  0  0
   27.7670    7.7270  -10.1680 C   0  0  0  0  0  0  0  0  0  0  0  0
   27.3320    8.9600   -9.6380 C   0  0  0  0  0  0  0  0  0  0  0  0
   25.6170   11.1230   -5.3510 C   0  0  1  0  0  0  0  0  0  0  0  0
   28.6110    7.6490  -11.2500 N   0  0  0  0  0  0  0  0  0  0  0  0
   29.0640    8.7780  -11.8450 C   0  0  0  0  0  0  0  0  0  0  0  0
   30.4360    9.0970  -11.9750 N   0  0  0  0  0  0  0  0  0  0  0  0
   30.5330   10.3240  -12.6450 C   0  0  0  0  0  0  0  0  0  0  0  0
   29.1600   10.6070  -12.8510 C   0  0  0  0  0  0  0  0  0  0  0  0
   28.2880    9.6840  -12.3870 N   0  0  0  0  0  0  0  0  0  0  0  0
   26.8180    9.7380  -12.5110 C   0  0  1  0  0  0  0  0  0  0  0  0
   24.1960    7.6770   -5.5650 C   0  0  0  0  0  0  0  0  0  0  0  0
   24.2320    6.2880   -5.5460 N   0  0  0  0  0  0  0  0  0  0  0  0
   23.5880    8.3710   -4.5250 C   0  0  0  0  0  0  0  0  0  0  0  0
   23.0180    7.6760   -3.4650 C   0  0  0  0  0  0  0  0  0  0  0  0
   23.0540    6.2870   -3.4460 C   0  0  0  0  0  0  0  0  0  0  0  0
   23.6760    5.6130   -4.4040 C   0  0  0  0  0  0  0  0  0  0  0  0
   25.4722    6.1442   -7.1877 H   0  0  0  0  0  0  0  0  0  0  0  0
   26.1076   10.9336   -8.0660 H   0  0  0  0  0  0  0  0  0  0  0  0
   27.6444    9.9176  -10.0801 H   0  0  0  0  0  0  0  0  0  0  0  0
   25.3422   10.9410   -4.3015 H   0  0  0  0  0  0  0  0  0  0  0  0
   26.6170   10.7081   -5.5454 H   0  0  0  0  0  0  0  0  0  0  0  0
   25.6250   12.2056   -5.5454 H   0  0  0  0  0  0  0  0  0  0  0  0
   28.9001    6.7282  -11.6097 H   0  0  0  0  0  0  0  0  0  0  0  0
   31.4233   10.9036  -12.9303 H   0  0  0  0  0  0  0  0  0  0  0  0
   28.8236   11.5232  -13.3583 H   0  0  0  0  0  0  0  0  0  0  0  0
   26.3658    9.7546  -11.5084 H   0  0  0  0  0  0  0  0  0  0  0  0
   26.5294   10.6474  -13.0585 H   0  0  0  0  0  0  0  0  0  0  0  0
   26.4634    8.8523  -13.0585 H   0  0  0  0  0  0  0  0  0  0  0  0
   23.5581    9.4705   -4.5411 H   0  0  0  0  0  0  0  0  0  0  0  0
   22.5385    8.2253   -2.6413 H   0  0  0  0  0  0  0  0  0  0  0  0
   22.5615    5.7409   -2.6280 H   0  0  0  0  0  0  0  0  0  0  0  0
   23.7682    4.5198   -4.3239 H   0  0  0  0  0  0  0  0  0  0  0  0
  1  7  1  0
  1  2  2  0
  1  5  1  0
  2  3  1  0
  2 19  1  0
  3  4  1  0
  4  8  2  0
  4  6  1  0
  6 10  1  0
  6  7  2  0
  8  9  1  0
  9 12  1  0
  9 10  2  0
 12 13  1  0
 13 17  1  0
 13 14  2  0
 14 15  1  0
 15 16  2  0
 16 17  1  0
 17 18  1  0
 19 20  2  0
 19 21  1  0
 20 24  1  0
 21 22  2  0
 22 23  1  0
 23 24  2  0
  5 11  1  0
  3 25  1  0
  7 26  1  0
 10 27  1  0
 11 28  1  1
 11 29  1  0
 11 30  1  0
 12 31  1  0
 15 32  1  0
 16 33  1  0
 18 34  1  1
 18 35  1  0
 18 36  1  0
 21 37  1  0
 22 38  1  0
 23 39  1  0
 24 40  1  0
M  END
>  <Pose ID>  (35)
26

>  <Score>  (35)
-7.40656042098999

>  <smiles>  (35)
COc1cc2cc(Nc3nccn3C)nc-2[nH]c1-c1ccccn1

$$$$

     RDKit          3D

 40 43  0  0  0  0  0  0  0  0999 V2000
   25.0880    9.3310   -6.9310 C   0  0  0  0  0  0  0  0  0  0  0  0
   24.9340    7.9660   -6.7070 C   0  0  0  0  0  0  0  0  0  0  0  0
   25.6040    7.0490   -7.5050 N   0  0  0  0  0  0  0  0  0  0  0  0
   26.4330    7.4970   -8.5300 C   0  0  0  0  0  0  0  0  0  0  0  0
   24.5700   10.3590   -6.3170 O   0  0  0  0  0  0  0  0  0  0  0  0
   26.5890    8.8580   -8.7540 C   0  0  0  0  0  0  0  0  0  0  0  0
   25.9190    9.7760   -7.9580 C   0  0  0  0  0  0  0  0  0  0  0  0
   27.1750    6.8120   -9.4190 N   0  0  0  0  0  0  0  0  0  0  0  0
   27.8210    7.7110  -10.2390 C   0  0  0  0  0  0  0  0  0  0  0  0
   27.3480    8.9280   -9.7030 C   0  0  0  0  0  0  0  0  0  0  0  0
   25.4810   10.9960   -5.4300 C   0  0  1  0  0  0  0  0  0  0  0  0
   28.6930    7.6660  -11.3000 N   0  0  0  0  0  0  0  0  0  0  0  0
   29.1370    8.8130  -11.8680 C   0  0  0  0  0  0  0  0  0  0  0  0
   30.5050    9.1630  -11.9580 N   0  0  0  0  0  0  0  0  0  0  0  0
   30.5940   10.3990  -12.6100 C   0  0  0  0  0  0  0  0  0  0  0  0
   29.2210   10.6580  -12.8470 C   0  0  0  0  0  0  0  0  0  0  0  0
   28.3560    9.7110  -12.4160 N   0  0  0  0  0  0  0  0  0  0  0  0
   26.8890    9.7350  -12.5760 C   0  0  1  0  0  0  0  0  0  0  0  0
   24.1580    7.3040   -5.7050 C   0  0  0  0  0  0  0  0  0  0  0  0
   22.7940    7.5720   -5.6860 C   0  0  0  0  0  0  0  0  0  0  0  0
   24.7070    6.4220   -4.7820 C   0  0  0  0  0  0  0  0  0  0  0  0
   23.8910    5.8070   -3.8400 C   0  0  0  0  0  0  0  0  0  0  0  0
   21.9790    6.9550   -4.7440 N   0  0  0  0  0  0  0  0  0  0  0  0
   22.5270    6.0740   -3.8210 C   0  0  0  0  0  0  0  0  0  0  0  0
   25.4881    6.0391   -7.3392 H   0  0  0  0  0  0  0  0  0  0  0  0
   26.0435   10.8541   -8.1372 H   0  0  0  0  0  0  0  0  0  0  0  0
   27.6520    9.8975  -10.1245 H   0  0  0  0  0  0  0  0  0  0  0  0
   25.1858   10.7896   -4.3907 H   0  0  0  0  0  0  0  0  0  0  0  0
   26.4956   10.6095   -5.6066 H   0  0  0  0  0  0  0  0  0  0  0  0
   25.4663   12.0816   -5.6066 H   0  0  0  0  0  0  0  0  0  0  0  0
   29.0103    6.7566  -11.6649 H   0  0  0  0  0  0  0  0  0  0  0  0
   31.4795   10.9993  -12.8659 H   0  0  0  0  0  0  0  0  0  0  0  0
   28.8790   11.5739  -13.3511 H   0  0  0  0  0  0  0  0  0  0  0  0
   26.4121    9.7428  -11.5848 H   0  0  0  0  0  0  0  0  0  0  0  0
   26.5954   10.6381  -13.1312 H   0  0  0  0  0  0  0  0  0  0  0  0
   26.5661    8.8420  -13.1312 H   0  0  0  0  0  0  0  0  0  0  0  0
   22.3601    8.2716   -6.4156 H   0  0  0  0  0  0  0  0  0  0  0  0
   25.7864    6.2108   -4.7970 H   0  0  0  0  0  0  0  0  0  0  0  0
   24.3247    5.1086   -3.1091 H   0  0  0  0  0  0  0  0  0  0  0  0
   21.8817    5.5874   -3.0748 H   0  0  0  0  0  0  0  0  0  0  0  0
  1  7  1  0
  1  2  2  0
  1  5  1  0
  2  3  1  0
  2 19  1  0
  3  4  1  0
  4  8  2  0
  4  6  1  0
  6 10  1  0
  6  7  2  0
  8  9  1  0
  9 12  1  0
  9 10  2  0
 12 13  1  0
 13 17  1  0
 13 14  2  0
 14 15  1  0
 15 16  2  0
 16 17  1  0
 17 18  1  0
 19 20  2  0
 19 21  1  0
 20 23  1  0
 21 22  2  0
 22 24  1  0
 23 24  2  0
  5 11  1  0
  3 25  1  0
  7 26  1  0
 10 27  1  0
 11 28  1  1
 11 29  1  0
 11 30  1  0
 12 31  1  0
 15 32  1  0
 16 33  1  0
 18 34  1  1
 18 35  1  0
 18 36  1  0
 20 37  1  0
 21 38  1  0
 22 39  1  0
 24 40  1  0
M  END
>  <Pose ID>  (36)
48

>  <Score>  (36)
-7.404224872589111

>  <smiles>  (36)
COc1cc2cc(Nc3nccn3C)nc-2[nH]c1-c1cccnc1

$$$$

     RDKit          3D

 46 49  0  0  0  0  0  0  0  0999 V2000
   25.3010    9.5220   -6.8890 C   0  0  0  0  0  0  0  0  0  0  0  0
   25.1680    8.1550   -6.6590 C   0  0  0  0  0  0  0  0  0  0  0  0
   25.8160    7.2440   -7.4810 N   0  0  0  0  0  0  0  0  0  0  0  0
   26.6030    7.6980   -8.5360 C   0  0  0  0  0  0  0  0  0  0  0  0
   24.7980   10.5470   -6.2590 O   0  0  0  0  0  0  0  0  0  0  0  0
   26.7390    9.0600   -8.7650 C   0  0  0  0  0  0  0  0  0  0  0  0
   26.0900    9.9730   -7.9450 C   0  0  0  0  0  0  0  0  0  0  0  0
   27.3180    7.0200   -9.4520 N   0  0  0  0  0  0  0  0  0  0  0  0
   27.9250    7.9240  -10.2950 C   0  0  0  0  0  0  0  0  0  0  0  0
   27.4620    9.1370   -9.7430 C   0  0  0  0  0  0  0  0  0  0  0  0
   25.7350   11.1920   -5.4050 C   0  0  1  0  0  0  0  0  0  0  0  0
   28.7590    7.8850  -11.3870 N   0  0  0  0  0  0  0  0  0  0  0  0
   29.1720    9.0360  -11.9720 C   0  0  0  0  0  0  0  0  0  0  0  0
   30.5330    9.3960  -12.1130 N   0  0  0  0  0  0  0  0  0  0  0  0
   30.5860   10.6340  -12.7670 C   0  0  0  0  0  0  0  0  0  0  0  0
   29.2020   10.8800  -12.9530 C   0  0  0  0  0  0  0  0  0  0  0  0
   28.3620    9.9270  -12.4900 N   0  0  0  0  0  0  0  0  0  0  0  0
   26.8910    9.9380  -12.5980 C   0  0  1  0  0  0  0  0  0  0  0  0
   24.3530    7.9640   -5.5720 N   0  0  0  0  0  0  0  0  0  0  0  0
   24.0560    6.5070   -5.1220 C   0  0  1  0  0  0  0  0  0  0  0  0
   22.9120    6.4840   -4.0990 C   0  0  0  0  0  0  0  0  0  0  0  0
   21.9990    5.4360   -4.1070 N   0  0  0  0  0  0  0  0  0  0  0  0
   20.9520    5.4190   -3.1930 C   0  0  0  0  0  0  0  0  0  0  0  0
   22.7770    7.5140   -3.1770 C   0  0  0  0  0  0  0  0  0  0  0  0
   21.7310    7.4980   -2.2630 C   0  0  0  0  0  0  0  0  0  0  0  0
   20.8220    6.4650   -2.2690 C   0  0  0  0  0  0  0  0  0  0  0  0
   19.7920    6.4590   -1.3750 O   0  0  0  0  0  0  0  0  0  0  0  0
   25.7149    6.2332   -7.3109 H   0  0  0  0  0  0  0  0  0  0  0  0
   26.1986   11.0521   -8.1289 H   0  0  0  0  0  0  0  0  0  0  0  0
   27.7411   10.1089  -10.1761 H   0  0  0  0  0  0  0  0  0  0  0  0
   25.4637   11.0052   -4.3555 H   0  0  0  0  0  0  0  0  0  0  0  0
   26.7422   10.7950   -5.5995 H   0  0  0  0  0  0  0  0  0  0  0  0
   25.7237   12.2746   -5.5995 H   0  0  0  0  0  0  0  0  0  0  0  0
   29.0712    6.9780  -11.7621 H   0  0  0  0  0  0  0  0  0  0  0  0
   31.4556   11.2430  -13.0548 H   0  0  0  0  0  0  0  0  0  0  0  0
   28.8335   11.7923  -13.4449 H   0  0  0  0  0  0  0  0  0  0  0  0
   26.4494    9.9413  -11.5905 H   0  0  0  0  0  0  0  0  0  0  0  0
   26.5700   10.8386  -13.1420 H   0  0  0  0  0  0  0  0  0  0  0  0
   26.5566    9.0423  -13.1420 H   0  0  0  0  0  0  0  0  0  0  0  0
   23.9486    8.7657   -5.0674 H   0  0  0  0  0  0  0  0  0  0  0  0
   23.7695    5.9083   -5.9992 H   0  0  0  0  0  0  0  0  0  0  0  0
   24.9594    6.0871   -4.6555 H   0  0  0  0  0  0  0  0  0  0  0  0
   20.2296    4.5895   -3.1948 H   0  0  0  0  0  0  0  0  0  0  0  0
   23.4994    8.3435   -3.1706 H   0  0  0  0  0  0  0  0  0  0  0  0
   21.6291    8.3137   -1.5321 H   0  0  0  0  0  0  0  0  0  0  0  0
   19.6991    7.1972   -0.7219 H   0  0  0  0  0  0  0  0  0  0  0  0
  1  7  1  0
  1  2  2  0
  1  5  1  0
  2  3  1  0
  2 19  1  0
  3  4  1  0
  4  8  2  0
  4  6  1  0
  6 10  1  0
  6  7  2  0
  8  9  1  0
  9 12  1  0
  9 10  2  0
 12 13  1  0
 13 17  1  0
 13 14  2  0
 14 15  1  0
 15 16  2  0
 16 17  1  0
 17 18  1  0
  5 11  1  0
 19 20  1  0
 20 21  1  0
 21 22  2  0
 21 24  1  0
 22 23  1  0
 23 26  2  0
 24 25  2  0
 25 26  1  0
 26 27  1  0
  3 28  1  0
  7 29  1  0
 10 30  1  0
 11 31  1  1
 11 32  1  0
 11 33  1  0
 12 34  1  0
 15 35  1  0
 16 36  1  0
 18 37  1  1
 18 38  1  0
 18 39  1  0
 19 40  1  0
 20 41  1  6
 20 42  1  0
 23 43  1  0
 24 44  1  0
 25 45  1  0
 27 46  1  0
M  END
>  <Pose ID>  (37)
116

>  <Score>  (37)
-7.40103816986084

>  <smiles>  (37)
COc1cc2cc(Nc3nccn3C)nc-2[nH]c1NCc1ccc(O)cn1

$$$$

     RDKit          3D

 55 59  0  0  0  0  0  0  0  0999 V2000
   25.2590    9.1630   -7.0470 C   0  0  0  0  0  0  0  0  0  0  0  0
   25.2320    7.7790   -6.8990 C   0  0  0  0  0  0  0  0  0  0  0  0
   25.9510    6.9710   -7.7680 N   0  0  0  0  0  0  0  0  0  0  0  0
   26.7050    7.5500   -8.7880 C   0  0  0  0  0  0  0  0  0  0  0  0
   24.6720   10.1040   -6.3610 O   0  0  0  0  0  0  0  0  0  0  0  0
   26.7330    8.9270   -8.9350 C   0  0  0  0  0  0  0  0  0  0  0  0
   26.0130    9.7350   -8.0680 C   0  0  0  0  0  0  0  0  0  0  0  0
   27.4750    6.9850   -9.7350 N   0  0  0  0  0  0  0  0  0  0  0  0
   28.0130    7.9830  -10.5180 C   0  0  0  0  0  0  0  0  0  0  0  0
   27.4530    9.1220   -9.9000 C   0  0  0  0  0  0  0  0  0  0  0  0
   25.5540   10.7690   -5.4620 C   0  0  1  0  0  0  0  0  0  0  0  0
   28.8500    8.0750  -11.6040 N   0  0  0  0  0  0  0  0  0  0  0  0
   29.1740    9.2850  -12.1150 C   0  0  0  0  0  0  0  0  0  0  0  0
   30.5000    9.7620  -12.2250 N   0  0  0  0  0  0  0  0  0  0  0  0
   30.4560   11.0380  -12.8030 C   0  0  0  0  0  0  0  0  0  0  0  0
   29.0600   11.1830  -12.9880 C   0  0  0  0  0  0  0  0  0  0  0  0
   28.2970   10.1390  -12.5890 N   0  0  0  0  0  0  0  0  0  0  0  0
   26.8290   10.0430  -12.7060 C   0  0  1  0  0  0  0  0  0  0  0  0
   24.4200    7.1550   -5.7920 C   0  0  1  0  0  0  0  0  0  0  0  0
   23.5540    8.2750   -5.2280 C   0  0  0  0  0  0  0  0  0  0  0  0
   22.7920    9.0760   -6.0790 C   0  0  0  0  0  0  0  0  0  0  0  0
   21.9170   10.0090   -5.5450 N   0  0  0  0  0  0  0  0  0  0  0  0
   21.7290   10.0870   -4.1700 C   0  0  0  0  0  0  0  0  0  0  0  0
   22.4550    9.2570   -3.3230 N   0  0  0  0  0  0  0  0  0  0  0  0
   23.3650    8.3520   -3.8520 C   0  0  0  0  0  0  0  0  0  0  0  0
   24.0160    7.6110   -3.0930 O   0  0  0  0  0  0  0  0  0  0  0  0
   20.9080   10.8820   -3.4210 N   0  0  0  0  0  0  0  0  0  0  0  0
   21.3070   11.5920   -2.1990 C   0  0  1  0  0  0  0  0  0  0  0  0
   20.4920   12.8330   -2.0040 C   0  0  1  0  0  0  0  0  0  0  0  0
   19.5020   11.4790   -3.8000 C   0  0  1  0  0  0  0  0  0  0  0  0
   19.1260   12.3650   -2.6010 C   0  0  1  0  0  0  0  0  0  0  0  0
   25.9279    5.9469   -7.6600 H   0  0  0  0  0  0  0  0  0  0  0  0
   26.0376   10.8283   -8.1870 H   0  0  0  0  0  0  0  0  0  0  0  0
   27.6564   10.1373  -10.2712 H   0  0  0  0  0  0  0  0  0  0  0  0
   25.2584   10.5461   -4.4262 H   0  0  0  0  0  0  0  0  0  0  0  0
   26.5831   10.4201   -5.6327 H   0  0  0  0  0  0  0  0  0  0  0  0
   25.5017   11.8544   -5.6327 H   0  0  0  0  0  0  0  0  0  0  0  0
   29.2323    7.2191  -12.0308 H   0  0  0  0  0  0  0  0  0  0  0  0
   31.2751   11.7313  -13.0447 H   0  0  0  0  0  0  0  0  0  0  0  0
   28.6217   12.0901  -13.4297 H   0  0  0  0  0  0  0  0  0  0  0  0
   26.3822   10.0138  -11.7012 H   0  0  0  0  0  0  0  0  0  0  0  0
   26.4467   10.9181  -13.2520 H   0  0  0  0  0  0  0  0  0  0  0  0
   26.5639    9.1256  -13.2520 H   0  0  0  0  0  0  0  0  0  0  0  0
   23.7890    6.3463   -6.1893 H   0  0  0  0  0  0  0  0  0  0  0  0
   25.0644    6.7134   -5.0176 H   0  0  0  0  0  0  0  0  0  0  0  0
   22.8853    8.9675   -7.1697 H   0  0  0  0  0  0  0  0  0  0  0  0
   22.3177    9.3136   -2.3038 H   0  0  0  0  0  0  0  0  0  0  0  0
   21.1619   10.9277   -1.3343 H   0  0  0  0  0  0  0  0  0  0  0  0
   22.3643   11.8805   -2.2929 H   0  0  0  0  0  0  0  0  0  0  0  0
   20.4020   13.0981   -0.9402 H   0  0  0  0  0  0  0  0  0  0  0  0
   20.9119   13.7378   -2.4677 H   0  0  0  0  0  0  0  0  0  0  0  0
   19.5688   12.0777   -4.7204 H   0  0  0  0  0  0  0  0  0  0  0  0
   18.7533   10.6969   -3.9941 H   0  0  0  0  0  0  0  0  0  0  0  0
   18.5557   11.7888   -1.8576 H   0  0  0  0  0  0  0  0  0  0  0  0
   18.4902   13.2129   -2.8955 H   0  0  0  0  0  0  0  0  0  0  0  0
  1  7  1  0
  1  2  2  0
  1  5  1  0
  2  3  1  0
  2 19  1  0
  3  4  1  0
  4  8  2  0
  4  6  1  0
  6 10  1  0
  6  7  2  0
  8  9  1  0
  9 12  1  0
  9 10  2  0
 12 13  1  0
 13 17  1  0
 13 14  2  0
 14 15  1  0
 15 16  2  0
 16 17  1  0
 17 18  1  0
  5 11  1  0
 19 20  1  0
 20 21  2  0
 20 25  1  0
 21 22  1  0
 22 23  2  0
 23 27  1  0
 23 24  1  0
 24 25  1  0
 25 26  2  0
 27 30  1  0
 27 28  1  0
 28 29  1  0
 29 31  1  0
 30 31  1  0
  3 32  1  0
  7 33  1  0
 10 34  1  0
 11 35  1  1
 11 36  1  0
 11 37  1  0
 12 38  1  0
 15 39  1  0
 16 40  1  0
 18 41  1  1
 18 42  1  0
 18 43  1  0
 19 44  1  6
 19 45  1  0
 21 46  1  0
 24 47  1  0
 28 48  1  1
 28 49  1  0
 29 50  1  1
 29 51  1  0
 30 52  1  6
 30 53  1  0
 31 54  1  1
 31 55  1  0
M  END
>  <Pose ID>  (38)
130

>  <Score>  (38)
-7.400145053863525

>  <smiles>  (38)
COc1cc2cc(Nc3nccn3C)nc-2[nH]c1Cc1cnc(N2CCCC2)[nH]c1=O

$$$$

     RDKit          3D

 40 43  0  0  0  0  0  0  0  0999 V2000
   25.2590    9.5250   -6.8710 C   0  0  0  0  0  0  0  0  0  0  0  0
   25.1280    8.1580   -6.6290 C   0  0  0  0  0  0  0  0  0  0  0  0
   25.7800    7.2420   -7.4440 N   0  0  0  0  0  0  0  0  0  0  0  0
   26.5690    7.6910   -8.5000 C   0  0  0  0  0  0  0  0  0  0  0  0
   24.7490   10.5510   -6.2460 O   0  0  0  0  0  0  0  0  0  0  0  0
   26.7010    9.0500   -8.7400 C   0  0  0  0  0  0  0  0  0  0  0  0
   26.0480    9.9690   -7.9280 C   0  0  0  0  0  0  0  0  0  0  0  0
   27.2880    7.0070   -9.4090 N   0  0  0  0  0  0  0  0  0  0  0  0
   27.8950    7.9060  -10.2580 C   0  0  0  0  0  0  0  0  0  0  0  0
   27.4250    9.1230   -9.7140 C   0  0  0  0  0  0  0  0  0  0  0  0
   25.6850   11.2040   -5.3970 C   0  0  1  0  0  0  0  0  0  0  0  0
   28.7300    7.8610  -11.3480 N   0  0  0  0  0  0  0  0  0  0  0  0
   29.1400    9.0080  -11.9410 C   0  0  0  0  0  0  0  0  0  0  0  0
   30.5000    9.3720  -12.0800 N   0  0  0  0  0  0  0  0  0  0  0  0
   30.5530   10.6050  -12.7440 C   0  0  0  0  0  0  0  0  0  0  0  0
   29.1690   10.8470  -12.9350 C   0  0  0  0  0  0  0  0  0  0  0  0
   28.3310    9.8920  -12.4690 N   0  0  0  0  0  0  0  0  0  0  0  0
   26.8580    9.9000  -12.5780 C   0  0  1  0  0  0  0  0  0  0  0  0
   24.3120    7.6660   -5.5430 C   0  0  0  0  0  0  0  0  0  0  0  0
   23.6320    8.5640   -4.7300 N   0  0  0  0  0  0  0  0  0  0  0  0
   24.2140    6.3000   -5.3060 C   0  0  0  0  0  0  0  0  0  0  0  0
   23.4350    5.8320   -4.2550 N   0  0  0  0  0  0  0  0  0  0  0  0
   22.7540    6.7280   -3.4410 C   0  0  0  0  0  0  0  0  0  0  0  0
   22.8190    8.0400   -3.6380 C   0  0  0  0  0  0  0  0  0  0  0  0
   22.1900    8.8170   -2.8960 O   0  0  0  0  0  0  0  0  0  0  0  0
   25.6802    6.2321   -7.2677 H   0  0  0  0  0  0  0  0  0  0  0  0
   26.1545   11.0468   -8.1204 H   0  0  0  0  0  0  0  0  0  0  0  0
   27.7020   10.0931  -10.1524 H   0  0  0  0  0  0  0  0  0  0  0  0
   25.4186   11.0182   -4.3461 H   0  0  0  0  0  0  0  0  0  0  0  0
   26.6940   10.8128   -5.5942 H   0  0  0  0  0  0  0  0  0  0  0  0
   25.6662   12.2860   -5.5942 H   0  0  0  0  0  0  0  0  0  0  0  0
   29.0454    6.9520  -11.7157 H   0  0  0  0  0  0  0  0  0  0  0  0
   31.4223   11.2130  -13.0348 H   0  0  0  0  0  0  0  0  0  0  0  0
   28.7989   11.7559  -13.4319 H   0  0  0  0  0  0  0  0  0  0  0  0
   26.4158    9.9024  -11.5708 H   0  0  0  0  0  0  0  0  0  0  0  0
   26.5355   10.7999  -13.1222 H   0  0  0  0  0  0  0  0  0  0  0  0
   26.5257    9.0036  -13.1222 H   0  0  0  0  0  0  0  0  0  0  0  0
   23.7004    9.5784   -4.8948 H   0  0  0  0  0  0  0  0  0  0  0  0
   24.7529    5.5897   -5.9502 H   0  0  0  0  0  0  0  0  0  0  0  0
   22.1446    6.3408   -2.6111 H   0  0  0  0  0  0  0  0  0  0  0  0
  1  7  1  0
  1  2  2  0
  1  5  1  0
  2  3  1  0
  2 19  1  0
  3  4  1  0
  4  8  2  0
  4  6  1  0
  6 10  1  0
  6  7  2  0
  8  9  1  0
  9 12  1  0
  9 10  2  0
 12 13  1  0
 13 17  1  0
 13 14  2  0
 14 15  1  0
 15 16  2  0
 16 17  1  0
 17 18  1  0
 19 21  2  0
 19 20  1  0
 20 24  1  0
 21 22  1  0
 22 23  2  0
 23 24  1  0
 24 25  2  0
  5 11  1  0
  3 26  1  0
  7 27  1  0
 10 28  1  0
 11 29  1  1
 11 30  1  0
 11 31  1  0
 12 32  1  0
 15 33  1  0
 16 34  1  0
 18 35  1  1
 18 36  1  0
 18 37  1  0
 20 38  1  0
 21 39  1  0
 23 40  1  0
M  END
>  <Pose ID>  (39)
34

>  <Score>  (39)
-7.375938415527344

>  <smiles>  (39)
COc1cc2cc(Nc3nccn3C)nc-2[nH]c1-c1cncc(=O)[nH]1

$$$$

     RDKit          3D

 45 48  0  0  0  0  0  0  0  0999 V2000
   25.1980    9.4410   -6.8740 C   0  0  0  0  0  0  0  0  0  0  0  0
   25.0260    8.0810   -6.6420 C   0  0  0  0  0  0  0  0  0  0  0  0
   25.6680    7.1520   -7.4520 N   0  0  0  0  0  0  0  0  0  0  0  0
   26.4840    7.5850   -8.4940 C   0  0  0  0  0  0  0  0  0  0  0  0
   24.7050   10.4790   -6.2520 O   0  0  0  0  0  0  0  0  0  0  0  0
   26.6560    8.9420   -8.7220 C   0  0  0  0  0  0  0  0  0  0  0  0
   26.0150    9.8710   -7.9160 C   0  0  0  0  0  0  0  0  0  0  0  0
   27.2000    6.8870   -9.3930 N   0  0  0  0  0  0  0  0  0  0  0  0
   27.8430    7.7730  -10.2290 C   0  0  0  0  0  0  0  0  0  0  0  0
   27.3990    9.0010   -9.6870 C   0  0  0  0  0  0  0  0  0  0  0  0
   25.6440   11.1040   -5.3850 C   0  0  1  0  0  0  0  0  0  0  0  0
   28.6960    7.7120  -11.3050 N   0  0  0  0  0  0  0  0  0  0  0  0
   29.1450    8.8530  -11.8850 C   0  0  0  0  0  0  0  0  0  0  0  0
   30.5170    9.1800  -12.0010 N   0  0  0  0  0  0  0  0  0  0  0  0
   30.6110   10.4160  -12.6580 C   0  0  0  0  0  0  0  0  0  0  0  0
   29.2380   10.6950  -12.8680 C   0  0  0  0  0  0  0  0  0  0  0  0
   28.3670    9.7600  -12.4210 N   0  0  0  0  0  0  0  0  0  0  0  0
   26.8990    9.8070  -12.5530 C   0  0  1  0  0  0  0  0  0  0  0  0
   24.1930    7.9110   -5.5730 N   0  0  0  0  0  0  0  0  0  0  0  0
   23.3330    6.7200   -5.4960 C   0  0  1  0  0  0  0  0  0  0  0  0
   23.6150    8.7840   -4.8150 C   0  0  0  0  0  0  0  0  0  0  0  0
   23.9510    8.9590   -3.4780 N   0  0  0  0  0  0  0  0  0  0  0  0
   23.2800    9.9040   -2.7110 C   0  0  0  0  0  0  0  0  0  0  0  0
   22.2740   10.6740   -3.2800 C   0  0  0  0  0  0  0  0  0  0  0  0
   21.9370   10.5000   -4.6170 C   0  0  0  0  0  0  0  0  0  0  0  0
   22.6080    9.5550   -5.3850 C   0  0  0  0  0  0  0  0  0  0  0  0
   25.5404    6.1442   -7.2818 H   0  0  0  0  0  0  0  0  0  0  0  0
   26.1520   10.9468   -8.0999 H   0  0  0  0  0  0  0  0  0  0  0  0
   27.7095    9.9651  -10.1160 H   0  0  0  0  0  0  0  0  0  0  0  0
   25.3599   10.9149   -4.3393 H   0  0  0  0  0  0  0  0  0  0  0  0
   26.6467   10.6925   -5.5727 H   0  0  0  0  0  0  0  0  0  0  0  0
   25.6514   12.1878   -5.5727 H   0  0  0  0  0  0  0  0  0  0  0  0
   28.9951    6.7973  -11.6720 H   0  0  0  0  0  0  0  0  0  0  0  0
   31.4999   11.0029  -12.9326 H   0  0  0  0  0  0  0  0  0  0  0  0
   28.8998   11.6164  -13.3646 H   0  0  0  0  0  0  0  0  0  0  0  0
   26.4412    9.8217  -11.5529 H   0  0  0  0  0  0  0  0  0  0  0  0
   26.6091   10.7149  -13.1023 H   0  0  0  0  0  0  0  0  0  0  0  0
   26.5516    8.9195  -13.1023 H   0  0  0  0  0  0  0  0  0  0  0  0
   23.1504    6.4672   -4.4411 H   0  0  0  0  0  0  0  0  0  0  0  0
   22.3746    6.9269   -5.9946 H   0  0  0  0  0  0  0  0  0  0  0  0
   23.8309    5.8753   -5.9946 H   0  0  0  0  0  0  0  0  0  0  0  0
   23.5459   10.0421   -1.6526 H   0  0  0  0  0  0  0  0  0  0  0  0
   21.7437   11.4219   -2.6722 H   0  0  0  0  0  0  0  0  0  0  0  0
   21.1398   11.1096   -5.0674 H   0  0  0  0  0  0  0  0  0  0  0  0
   22.3422    9.4173   -6.4435 H   0  0  0  0  0  0  0  0  0  0  0  0
  1  7  1  0
  1  2  2  0
  1  5  1  0
  2  3  1  0
  2 19  1  0
  3  4  1  0
  4  8  2  0
  4  6  1  0
  6 10  1  0
  6  7  2  0
  8  9  1  0
  9 12  1  0
  9 10  2  0
 12 13  1  0
 13 17  1  0
 13 14  2  0
 14 15  1  0
 15 16  2  0
 16 17  1  0
 17 18  1  0
 19 20  1  0
 19 21  1  0
 21 26  1  0
 21 22  2  0
 22 23  1  0
 23 24  2  0
 24 25  1  0
 25 26  2  0
  5 11  1  0
  3 27  1  0
  7 28  1  0
 10 29  1  0
 11 30  1  1
 11 31  1  0
 11 32  1  0
 12 33  1  0
 15 34  1  0
 16 35  1  0
 18 36  1  1
 18 37  1  0
 18 38  1  0
 20 39  1  1
 20 40  1  0
 20 41  1  0
 23 42  1  0
 24 43  1  0
 25 44  1  0
 26 45  1  0
M  END
>  <Pose ID>  (40)
119

>  <Score>  (40)
-7.359828472137451

>  <smiles>  (40)
COc1cc2cc(Nc3nccn3C)nc-2[nH]c1N(C)c1ccccn1

$$$$

     RDKit          3D

 46 49  0  0  0  0  0  0  0  0999 V2000
   25.2760    9.4700   -6.7160 C   0  0  0  0  0  0  0  0  0  0  0  0
   25.0520    8.1130   -6.5110 C   0  0  0  0  0  0  0  0  0  0  0  0
   25.6290    7.1780   -7.3610 N   0  0  0  0  0  0  0  0  0  0  0  0
   26.4320    7.6010   -8.4170 C   0  0  0  0  0  0  0  0  0  0  0  0
   24.8470   10.5120   -6.0550 O   0  0  0  0  0  0  0  0  0  0  0  0
   26.6570    8.9540   -8.6180 C   0  0  0  0  0  0  0  0  0  0  0  0
   26.0810    9.8900   -7.7720 C   0  0  0  0  0  0  0  0  0  0  0  0
   27.0910    6.8950   -9.3530 N   0  0  0  0  0  0  0  0  0  0  0  0
   27.7470    7.7730  -10.1870 C   0  0  0  0  0  0  0  0  0  0  0  0
   27.3730    9.0050   -9.6030 C   0  0  0  0  0  0  0  0  0  0  0  0
   25.8380   11.0750   -5.2020 C   0  0  1  0  0  0  0  0  0  0  0  0
   28.5650    7.7020  -11.2900 N   0  0  0  0  0  0  0  0  0  0  0  0
   29.0460    8.8370  -11.8560 C   0  0  0  0  0  0  0  0  0  0  0  0
   30.4270    9.1070  -12.0060 N   0  0  0  0  0  0  0  0  0  0  0  0
   30.5560   10.3540  -12.6360 C   0  0  0  0  0  0  0  0  0  0  0  0
   29.1910   10.6970  -12.7980 C   0  0  0  0  0  0  0  0  0  0  0  0
   28.2940    9.7890  -12.3470 N   0  0  0  0  0  0  0  0  0  0  0  0
   26.8260    9.9030  -12.4330 C   0  0  1  0  0  0  0  0  0  0  0  0
   24.2440    7.9530   -5.4210 N   0  0  0  0  0  0  0  0  0  0  0  0
   23.3350    6.7980   -5.3460 C   0  0  1  0  0  0  0  0  0  0  0  0
   23.7270    8.8310   -4.6260 C   0  0  0  0  0  0  0  0  0  0  0  0
   24.1090    8.9580   -3.2960 N   0  0  0  0  0  0  0  0  0  0  0  0
   23.5020    9.9120   -2.4870 C   0  0  0  0  0  0  0  0  0  0  0  0
   22.5150   10.7380   -3.0070 C   0  0  0  0  0  0  0  0  0  0  0  0
   22.1320   10.6120   -4.3370 C   0  0  0  0  0  0  0  0  0  0  0  0
   22.7380    9.6580   -5.1470 C   0  0  0  0  0  0  0  0  0  0  0  0
   22.3640    9.5340   -6.4520 O   0  0  0  0  0  0  0  0  0  0  0  0
   25.4630    6.1727   -7.2103 H   0  0  0  0  0  0  0  0  0  0  0  0
   26.2598   10.9631   -7.9349 H   0  0  0  0  0  0  0  0  0  0  0  0
   27.7125    9.9653  -10.0184 H   0  0  0  0  0  0  0  0  0  0  0  0
   25.5529   10.9131   -4.1520 H   0  0  0  0  0  0  0  0  0  0  0  0
   26.8070   10.5926   -5.3975 H   0  0  0  0  0  0  0  0  0  0  0  0
   25.9197   12.1544   -5.3975 H   0  0  0  0  0  0  0  0  0  0  0  0
   28.8131    6.7847  -11.6874 H   0  0  0  0  0  0  0  0  0  0  0  0
   31.4614   10.9088  -12.9231 H   0  0  0  0  0  0  0  0  0  0  0  0
   28.8789   11.6441  -13.2623 H   0  0  0  0  0  0  0  0  0  0  0  0
   26.4008    9.9360  -11.4191 H   0  0  0  0  0  0  0  0  0  0  0  0
   26.5607   10.8244  -12.9720 H   0  0  0  0  0  0  0  0  0  0  0  0
   26.4217    9.0336  -12.9720 H   0  0  0  0  0  0  0  0  0  0  0  0
   23.1412    6.5518   -4.2916 H   0  0  0  0  0  0  0  0  0  0  0  0
   22.3864    7.0449   -5.8452 H   0  0  0  0  0  0  0  0  0  0  0  0
   23.7980    5.9340   -5.8452 H   0  0  0  0  0  0  0  0  0  0  0  0
   23.8041   10.0123   -1.4341 H   0  0  0  0  0  0  0  0  0  0  0  0
   22.0358   11.4927   -2.3661 H   0  0  0  0  0  0  0  0  0  0  0  0
   21.3498   11.2667   -4.7487 H   0  0  0  0  0  0  0  0  0  0  0  0
   21.6599   10.1227   -6.8232 H   0  0  0  0  0  0  0  0  0  0  0  0
  1  7  1  0
  1  2  2  0
  1  5  1  0
  2  3  1  0
  2 19  1  0
  3  4  1  0
  4  8  2  0
  4  6  1  0
  6 10  1  0
  6  7  2  0
  8  9  1  0
  9 12  1  0
  9 10  2  0
 12 13  1  0
 13 17  1  0
 13 14  2  0
 14 15  1  0
 15 16  2  0
 16 17  1  0
 17 18  1  0
 19 20  1  0
 19 21  1  0
 21 26  1  0
 21 22  2  0
 22 23  1  0
 23 24  2  0
 24 25  1  0
 25 26  2  0
 26 27  1  0
  5 11  1  0
  3 28  1  0
  7 29  1  0
 10 30  1  0
 11 31  1  1
 11 32  1  0
 11 33  1  0
 12 34  1  0
 15 35  1  0
 16 36  1  0
 18 37  1  1
 18 38  1  0
 18 39  1  0
 20 40  1  1
 20 41  1  0
 20 42  1  0
 23 43  1  0
 24 44  1  0
 25 45  1  0
 27 46  1  0
M  END
>  <Pose ID>  (41)
120

>  <Score>  (41)
-7.347285270690918

>  <smiles>  (41)
COc1cc2cc(Nc3nccn3C)nc-2[nH]c1N(C)c1ncccc1O

$$$$

     RDKit          3D

 40 43  0  0  0  0  0  0  0  0999 V2000
   25.1760    9.3560   -6.9110 C   0  0  0  0  0  0  0  0  0  0  0  0
   25.0190    7.9870   -6.7100 C   0  0  0  0  0  0  0  0  0  0  0  0
   25.6700    7.0810   -7.5340 N   0  0  0  0  0  0  0  0  0  0  0  0
   26.4840    7.5430   -8.5660 C   0  0  0  0  0  0  0  0  0  0  0  0
   24.6760   10.3750   -6.2710 O   0  0  0  0  0  0  0  0  0  0  0  0
   26.6440    8.9060   -8.7660 C   0  0  0  0  0  0  0  0  0  0  0  0
   25.9940    9.8130   -7.9410 C   0  0  0  0  0  0  0  0  0  0  0  0
   27.2070    6.8700   -9.4790 N   0  0  0  0  0  0  0  0  0  0  0  0
   27.8450    7.7810  -10.2920 C   0  0  0  0  0  0  0  0  0  0  0  0
   27.3890    8.9900   -9.7280 C   0  0  0  0  0  0  0  0  0  0  0  0
   25.6060   10.9900   -5.3870 C   0  0  1  0  0  0  0  0  0  0  0  0
   28.7000    7.7500  -11.3700 N   0  0  0  0  0  0  0  0  0  0  0  0
   29.1420    8.9030  -11.9240 C   0  0  0  0  0  0  0  0  0  0  0  0
   30.5110    9.2460  -12.0290 N   0  0  0  0  0  0  0  0  0  0  0  0
   30.5970   10.4950  -12.6600 C   0  0  0  0  0  0  0  0  0  0  0  0
   29.2200   10.7660  -12.8690 C   0  0  0  0  0  0  0  0  0  0  0  0
   28.3580    9.8170  -12.4420 N   0  0  0  0  0  0  0  0  0  0  0  0
   26.8890    9.8530  -12.5780 C   0  0  1  0  0  0  0  0  0  0  0  0
   24.0490    7.7360   -5.6210 C   0  0  0  0  0  0  0  0  0  0  0  0
   24.2250    8.3460   -4.3840 N   0  0  0  0  0  0  0  0  0  0  0  0
   23.2160    8.2880   -3.4300 C   0  0  0  0  0  0  0  0  0  0  0  0
   22.0300    7.6200   -3.7120 N   0  0  0  0  0  0  0  0  0  0  0  0
   21.8540    7.0110   -4.9490 C   0  0  0  0  0  0  0  0  0  0  0  0
   22.8490    7.0850   -5.9080 C   0  0  0  0  0  0  0  0  0  0  0  0
   23.3740    8.8330   -2.3230 O   0  0  0  0  0  0  0  0  0  0  0  0
   25.5519    6.0689   -7.3833 H   0  0  0  0  0  0  0  0  0  0  0  0
   26.1250   10.8934   -8.1008 H   0  0  0  0  0  0  0  0  0  0  0  0
   27.6915    9.9652  -10.1372 H   0  0  0  0  0  0  0  0  0  0  0  0
   25.3082   10.7931   -4.3465 H   0  0  0  0  0  0  0  0  0  0  0  0
   26.6098   10.5770   -5.5655 H   0  0  0  0  0  0  0  0  0  0  0  0
   25.6190   12.0753   -5.5655 H   0  0  0  0  0  0  0  0  0  0  0  0
   29.0048    6.8454  -11.7568 H   0  0  0  0  0  0  0  0  0  0  0  0
   31.4816   11.0950  -12.9196 H   0  0  0  0  0  0  0  0  0  0  0  0
   28.8748   11.6932  -13.3499 H   0  0  0  0  0  0  0  0  0  0  0  0
   26.4285    9.8643  -11.5791 H   0  0  0  0  0  0  0  0  0  0  0  0
   26.5938   10.7586  -13.1281 H   0  0  0  0  0  0  0  0  0  0  0  0
   26.5498    8.9629  -13.1281 H   0  0  0  0  0  0  0  0  0  0  0  0
   21.2823    7.5764   -3.0049 H   0  0  0  0  0  0  0  0  0  0  0  0
   20.9217    6.4690   -5.1662 H   0  0  0  0  0  0  0  0  0  0  0  0
   22.6935    6.6301   -6.8974 H   0  0  0  0  0  0  0  0  0  0  0  0
  1  7  1  0
  1  2  2  0
  1  5  1  0
  2  3  1  0
  2 19  1  0
  3  4  1  0
  4  8  2  0
  4  6  1  0
  6 10  1  0
  6  7  2  0
  8  9  1  0
  9 12  1  0
  9 10  2  0
 12 13  1  0
 13 17  1  0
 13 14  2  0
 14 15  1  0
 15 16  2  0
 16 17  1  0
 17 18  1  0
 19 24  1  0
 19 20  2  0
 20 21  1  0
 21 22  1  0
 21 25  2  0
 22 23  1  0
 23 24  2  0
  5 11  1  0
  3 26  1  0
  7 27  1  0
 10 28  1  0
 11 29  1  1
 11 30  1  0
 11 31  1  0
 12 32  1  0
 15 33  1  0
 16 34  1  0
 18 35  1  1
 18 36  1  0
 18 37  1  0
 22 38  1  0
 23 39  1  0
 24 40  1  0
M  END
>  <Pose ID>  (42)
62

>  <Score>  (42)
-7.33042049407959

>  <smiles>  (42)
COc1cc2cc(Nc3nccn3C)nc-2[nH]c1-c1cc[nH]c(=O)n1

$$$$

     RDKit          3D

 42 45  0  0  0  0  0  0  0  0999 V2000
   25.1370    9.4480   -6.7480 C   0  0  0  0  0  0  0  0  0  0  0  0
   24.8850    8.0990   -6.5030 C   0  0  0  0  0  0  0  0  0  0  0  0
   25.4740    7.1280   -7.2990 N   0  0  0  0  0  0  0  0  0  0  0  0
   26.3190    7.5020   -8.3430 C   0  0  0  0  0  0  0  0  0  0  0  0
   24.7030   10.5160   -6.1360 O   0  0  0  0  0  0  0  0  0  0  0  0
   26.5700    8.8440   -8.5820 C   0  0  0  0  0  0  0  0  0  0  0  0
   25.9800    9.8160   -7.7890 C   0  0  0  0  0  0  0  0  0  0  0  0
   26.9940    6.7530   -9.2320 N   0  0  0  0  0  0  0  0  0  0  0  0
   27.6940    7.5930  -10.0700 C   0  0  0  0  0  0  0  0  0  0  0  0
   27.3190    8.8480   -9.5440 C   0  0  0  0  0  0  0  0  0  0  0  0
   25.6720   11.0940   -5.2720 C   0  0  1  0  0  0  0  0  0  0  0  0
   28.5430    7.4740  -11.1440 N   0  0  0  0  0  0  0  0  0  0  0  0
   29.0620    8.5770  -11.7320 C   0  0  0  0  0  0  0  0  0  0  0  0
   30.4520    8.8230  -11.8460 N   0  0  0  0  0  0  0  0  0  0  0  0
   30.6210   10.0450  -12.5140 C   0  0  0  0  0  0  0  0  0  0  0  0
   29.2660   10.4010  -12.7340 C   0  0  0  0  0  0  0  0  0  0  0  0
   28.3400    9.5250  -12.2810 N   0  0  0  0  0  0  0  0  0  0  0  0
   26.8780    9.6540  -12.4200 C   0  0  1  0  0  0  0  0  0  0  0  0
   24.0710    7.5220   -5.5360 C   0  0  0  0  0  0  0  0  0  0  0  0
   22.7480    7.9460   -5.4730 C   0  0  0  0  0  0  0  0  0  0  0  0
   24.5540    6.6090   -4.6040 C   0  0  0  0  0  0  0  0  0  0  0  0
   21.9090    7.4550   -4.4800 N   0  0  0  0  0  0  0  0  0  0  0  0
   22.3920    6.5430   -3.5490 C   0  0  0  0  0  0  0  0  0  0  0  0
   23.6940    6.1410   -3.5580 C   0  0  0  0  0  0  0  0  0  0  0  0
   22.3160    8.7640   -6.3050 O   0  0  0  0  0  0  0  0  0  0  0  0
   24.1700    5.3070   -2.5890 O   0  0  0  0  0  0  0  0  0  0  0  0
   25.2873    6.1312   -7.1190 H   0  0  0  0  0  0  0  0  0  0  0  0
   26.1796   10.8800   -7.9843 H   0  0  0  0  0  0  0  0  0  0  0  0
   27.6861    9.7877   -9.9824 H   0  0  0  0  0  0  0  0  0  0  0  0
   25.3805   10.9201   -4.2257 H   0  0  0  0  0  0  0  0  0  0  0  0
   26.6529   10.6333   -5.4608 H   0  0  0  0  0  0  0  0  0  0  0  0
   25.7327   12.1760   -5.4608 H   0  0  0  0  0  0  0  0  0  0  0  0
   28.7858    6.5399  -11.5036 H   0  0  0  0  0  0  0  0  0  0  0  0
   31.5437   10.5768  -12.7893 H   0  0  0  0  0  0  0  0  0  0  0  0
   28.9845   11.3346  -13.2431 H   0  0  0  0  0  0  0  0  0  0  0  0
   26.4170    9.6947  -11.4221 H   0  0  0  0  0  0  0  0  0  0  0  0
   26.6420   10.5765  -12.9708 H   0  0  0  0  0  0  0  0  0  0  0  0
   26.4841    8.7871  -12.9708 H   0  0  0  0  0  0  0  0  0  0  0  0
   25.5911    6.2482   -4.6698 H   0  0  0  0  0  0  0  0  0  0  0  0
   20.9285    7.7671   -4.4339 H   0  0  0  0  0  0  0  0  0  0  0  0
   21.7086    6.1370   -2.7886 H   0  0  0  0  0  0  0  0  0  0  0  0
   23.5681    4.9889   -1.8702 H   0  0  0  0  0  0  0  0  0  0  0  0
  1  7  1  0
  1  2  2  0
  1  5  1  0
  2  3  1  0
  2 19  1  0
  3  4  1  0
  4  8  2  0
  4  6  1  0
  6 10  1  0
  6  7  2  0
  8  9  1  0
  9 12  1  0
  9 10  2  0
 12 13  1  0
 13 17  1  0
 13 14  2  0
 14 15  1  0
 15 16  2  0
 16 17  1  0
 17 18  1  0
 19 20  1  0
 19 21  2  0
 20 25  2  0
 20 22  1  0
 21 24  1  0
 22 23  1  0
 23 24  2  0
 24 26  1  0
  5 11  1  0
  3 27  1  0
  7 28  1  0
 10 29  1  0
 11 30  1  1
 11 31  1  0
 11 32  1  0
 12 33  1  0
 15 34  1  0
 16 35  1  0
 18 36  1  1
 18 37  1  0
 18 38  1  0
 21 39  1  0
 22 40  1  0
 23 41  1  0
 26 42  1  0
M  END
>  <Pose ID>  (43)
51

>  <Score>  (43)
-7.328232288360596

>  <smiles>  (43)
COc1cc2cc(Nc3nccn3C)nc-2[nH]c1-c1cc(O)c[nH]c1=O

$$$$

     RDKit          3D

 49 52  0  0  0  0  0  0  0  0999 V2000
   25.3610    9.3440   -6.7400 C   0  0  0  0  0  0  0  0  0  0  0  0
   25.2380    7.9700   -6.5500 C   0  0  0  0  0  0  0  0  0  0  0  0
   25.8560    7.0870   -7.4230 N   0  0  0  0  0  0  0  0  0  0  0  0
   26.6070    7.5750   -8.4890 C   0  0  0  0  0  0  0  0  0  0  0  0
   24.8800   10.3450   -6.0580 O   0  0  0  0  0  0  0  0  0  0  0  0
   26.7330    8.9450   -8.6780 C   0  0  0  0  0  0  0  0  0  0  0  0
   26.1150    9.8280   -7.8070 C   0  0  0  0  0  0  0  0  0  0  0  0
   27.2910    6.9270   -9.4520 N   0  0  0  0  0  0  0  0  0  0  0  0
   27.8670    7.8600  -10.2850 C   0  0  0  0  0  0  0  0  0  0  0  0
   27.4240    9.0550   -9.6780 C   0  0  0  0  0  0  0  0  0  0  0  0
   25.8460   10.9630   -5.2180 C   0  0  1  0  0  0  0  0  0  0  0  0
   28.6640    7.8580  -11.4040 N   0  0  0  0  0  0  0  0  0  0  0  0
   29.0550    9.0270  -11.9660 C   0  0  0  0  0  0  0  0  0  0  0  0
   30.4100    9.3950  -12.1410 N   0  0  0  0  0  0  0  0  0  0  0  0
   30.4420   10.6530  -12.7570 C   0  0  0  0  0  0  0  0  0  0  0  0
   29.0510   10.9030  -12.8870 C   0  0  0  0  0  0  0  0  0  0  0  0
   28.2270    9.9340  -12.4260 N   0  0  0  0  0  0  0  0  0  0  0  0
   26.7560    9.9480  -12.4830 C   0  0  1  0  0  0  0  0  0  0  0  0
   24.4390    7.4510   -5.4120 C   0  0  0  0  0  0  0  0  0  0  0  0
   24.9960    6.9870   -4.3820 O   0  0  0  0  0  0  0  0  0  0  0  0
   22.9530    7.4560   -5.4320 N   0  0  0  0  0  0  0  0  0  0  0  0
   22.2040    6.4240   -4.7020 C   0  0  1  0  0  0  0  0  0  0  0  0
   22.1800    6.6620   -3.1960 C   0  0  1  0  0  0  0  0  0  0  0  0
   22.2050    8.3850   -6.2280 C   0  0  1  0  0  0  0  0  0  0  0  0
   21.1120    9.0290   -5.3850 C   0  0  1  0  0  0  0  0  0  0  0  0
   21.7600    8.0180   -2.8490 N   0  0  0  0  0  0  0  0  0  0  0  0
   20.9860    8.8450   -3.6180 C   0  0  0  0  0  0  0  0  0  0  0  0
   20.0660    9.5880   -3.0950 O   0  0  0  0  0  0  0  0  0  0  0  0
   25.7594    6.0712   -7.2828 H   0  0  0  0  0  0  0  0  0  0  0  0
   26.2199   10.9125   -7.9582 H   0  0  0  0  0  0  0  0  0  0  0  0
   27.6896   10.0407  -10.0877 H   0  0  0  0  0  0  0  0  0  0  0  0
   25.5789   10.7921   -4.1647 H   0  0  0  0  0  0  0  0  0  0  0  0
   26.8373   10.5310   -5.4197 H   0  0  0  0  0  0  0  0  0  0  0  0
   25.8693   12.0441   -5.4197 H   0  0  0  0  0  0  0  0  0  0  0  0
   28.9655    6.9641  -11.8174 H   0  0  0  0  0  0  0  0  0  0  0  0
   31.3014   11.2714  -13.0553 H   0  0  0  0  0  0  0  0  0  0  0  0
   28.6655   11.8302  -13.3362 H   0  0  0  0  0  0  0  0  0  0  0  0
   26.3495    9.9519  -11.4609 H   0  0  0  0  0  0  0  0  0  0  0  0
   26.4182   10.8494  -13.0154 H   0  0  0  0  0  0  0  0  0  0  0  0
   26.4012    9.0532  -13.0154 H   0  0  0  0  0  0  0  0  0  0  0  0
   21.1683    6.4140   -5.0723 H   0  0  0  0  0  0  0  0  0  0  0  0
   22.7103    5.4631   -4.8764 H   0  0  0  0  0  0  0  0  0  0  0  0
   21.4801    5.9480   -2.7374 H   0  0  0  0  0  0  0  0  0  0  0  0
   23.2044    6.5235   -2.8200 H   0  0  0  0  0  0  0  0  0  0  0  0
   22.8802    9.1659   -6.6078 H   0  0  0  0  0  0  0  0  0  0  0  0
   21.7436    7.8496   -7.0709 H   0  0  0  0  0  0  0  0  0  0  0  0
   21.1911   10.1107   -5.5683 H   0  0  0  0  0  0  0  0  0  0  0  0
   20.2279    8.4665   -5.7197 H   0  0  0  0  0  0  0  0  0  0  0  0
   22.0760    8.3862   -1.9404 H   0  0  0  0  0  0  0  0  0  0  0  0
  1  7  1  0
  1  2  2  0
  1  5  1  0
  2  3  1  0
  2 19  1  0
  3  4  1  0
  4  8  2  0
  4  6  1  0
  6 10  1  0
  6  7  2  0
  8  9  1  0
  9 12  1  0
  9 10  2  0
 19 21  1  0
 19 20  2  0
 21 24  1  0
 21 22  1  0
 22 23  1  0
 23 26  1  0
 24 25  1  0
 25 27  1  0
 26 27  1  0
 27 28  2  0
 12 13  1  0
 13 17  1  0
 13 14  2  0
 14 15  1  0
 15 16  2  0
 16 17  1  0
 17 18  1  0
  5 11  1  0
  3 29  1  0
  7 30  1  0
 10 31  1  0
 11 32  1  1
 11 33  1  0
 11 34  1  0
 12 35  1  0
 15 36  1  0
 16 37  1  0
 18 38  1  1
 18 39  1  0
 18 40  1  0
 22 41  1  6
 22 42  1  0
 23 43  1  1
 23 44  1  0
 24 45  1  6
 24 46  1  0
 25 47  1  1
 25 48  1  0
 26 49  1  0
M  END
>  <Pose ID>  (44)
66

>  <Score>  (44)
-7.309996604919434

>  <smiles>  (44)
COc1cc2cc(Nc3nccn3C)nc-2[nH]c1C(=O)N1CCNC(=O)CC1

$$$$

     RDKit          3D

 42 45  0  0  0  0  0  0  0  0999 V2000
   25.2210    9.4500   -6.8510 C   0  0  0  0  0  0  0  0  0  0  0  0
   25.0790    8.0830   -6.6330 C   0  0  0  0  0  0  0  0  0  0  0  0
   25.7180    7.1750   -7.4670 N   0  0  0  0  0  0  0  0  0  0  0  0
   26.5080    7.6350   -8.5200 C   0  0  0  0  0  0  0  0  0  0  0  0
   24.7270   10.4710   -6.2070 O   0  0  0  0  0  0  0  0  0  0  0  0
   26.6520    8.9970   -8.7340 C   0  0  0  0  0  0  0  0  0  0  0  0
   26.0130    9.9060   -7.9040 C   0  0  0  0  0  0  0  0  0  0  0  0
   27.2170    6.9590   -9.4420 N   0  0  0  0  0  0  0  0  0  0  0  0
   27.8290    7.8690  -10.2760 C   0  0  0  0  0  0  0  0  0  0  0  0
   27.3740    9.0800   -9.7120 C   0  0  0  0  0  0  0  0  0  0  0  0
   25.6710   11.1010   -5.3490 C   0  0  1  0  0  0  0  0  0  0  0  0
   28.6590    7.8380  -11.3710 N   0  0  0  0  0  0  0  0  0  0  0  0
   29.0780    8.9900  -11.9450 C   0  0  0  0  0  0  0  0  0  0  0  0
   30.4430    9.3430  -12.0850 N   0  0  0  0  0  0  0  0  0  0  0  0
   30.5040   10.5870  -12.7260 C   0  0  0  0  0  0  0  0  0  0  0  0
   29.1210   10.8450  -12.9080 C   0  0  0  0  0  0  0  0  0  0  0  0
   28.2760    9.8930  -12.4540 N   0  0  0  0  0  0  0  0  0  0  0  0
   26.8040    9.9150  -12.5570 C   0  0  1  0  0  0  0  0  0  0  0  0
   26.1630   10.3250  -13.8850 C   0  0  1  0  0  0  0  0  0  0  0  0
   24.2760    7.6200   -5.5440 C   0  0  0  0  0  0  0  0  0  0  0  0
   23.6460    8.4970   -4.6700 C   0  0  0  0  0  0  0  0  0  0  0  0
   22.8510    8.0040   -3.6430 C   0  0  0  0  0  0  0  0  0  0  0  0
   22.6860    6.6320   -3.4890 C   0  0  0  0  0  0  0  0  0  0  0  0
   24.1120    6.2480   -5.3910 N   0  0  0  0  0  0  0  0  0  0  0  0
   23.3170    5.7550   -4.3630 N   0  0  0  0  0  0  0  0  0  0  0  0
   25.6086    6.1632   -7.3081 H   0  0  0  0  0  0  0  0  0  0  0  0
   26.1309   10.9860   -8.0763 H   0  0  0  0  0  0  0  0  0  0  0  0
   27.6582   10.0544  -10.1360 H   0  0  0  0  0  0  0  0  0  0  0  0
   25.3941   10.9162   -4.3006 H   0  0  0  0  0  0  0  0  0  0  0  0
   26.6730   10.6899   -5.5415 H   0  0  0  0  0  0  0  0  0  0  0  0
   25.6758   12.1840   -5.5415 H   0  0  0  0  0  0  0  0  0  0  0  0
   28.9639    6.9331  -11.7570 H   0  0  0  0  0  0  0  0  0  0  0  0
   31.3776   11.1928  -13.0085 H   0  0  0  0  0  0  0  0  0  0  0  0
   28.7581   11.7649  -13.3898 H   0  0  0  0  0  0  0  0  0  0  0  0
   26.4488    8.8998  -12.3266 H   0  0  0  0  0  0  0  0  0  0  0  0
   26.5008   10.7095  -11.8593 H   0  0  0  0  0  0  0  0  0  0  0  0
   25.2514   10.9081  -13.6876 H   0  0  0  0  0  0  0  0  0  0  0  0
   26.8724   10.9374  -14.4609 H   0  0  0  0  0  0  0  0  0  0  0  0
   25.9045    9.4242  -14.4609 H   0  0  0  0  0  0  0  0  0  0  0  0
   23.7767    9.5825   -4.7912 H   0  0  0  0  0  0  0  0  0  0  0  0
   22.3520    8.6990   -2.9516 H   0  0  0  0  0  0  0  0  0  0  0  0
   22.0565    6.2411   -2.6760 H   0  0  0  0  0  0  0  0  0  0  0  0
  1  7  1  0
  1  2  2  0
  1  5  1  0
  2  3  1  0
  2 20  1  0
  3  4  1  0
  4  8  2  0
  4  6  1  0
  6 10  1  0
  6  7  2  0
  8  9  1  0
  9 12  1  0
  9 10  2  0
 12 13  1  0
 13 17  1  0
 13 14  2  0
 14 15  1  0
 15 16  2  0
 16 17  1  0
 17 18  1  0
 18 19  1  0
 20 24  1  0
 20 21  2  0
 21 22  1  0
 22 23  2  0
 23 25  1  0
 24 25  2  0
  5 11  1  0
  3 26  1  0
  7 27  1  0
 10 28  1  0
 11 29  1  1
 11 30  1  0
 11 31  1  0
 12 32  1  0
 15 33  1  0
 16 34  1  0
 18 35  1  1
 18 36  1  0
 19 37  1  1
 19 38  1  0
 19 39  1  0
 21 40  1  0
 22 41  1  0
 23 42  1  0
M  END
>  <Pose ID>  (45)
1

>  <Score>  (45)
-7.305995464324951

>  <smiles>  (45)
CCn1ccnc1Nc1cc2cc(OC)c(-c3cccnn3)[nH]c-2n1

$$$$

     RDKit          3D

 45 48  0  0  0  0  0  0  0  0999 V2000
   25.3090    9.5360   -6.8880 C   0  0  0  0  0  0  0  0  0  0  0  0
   25.1850    8.1690   -6.6540 C   0  0  0  0  0  0  0  0  0  0  0  0
   25.8360    7.2590   -7.4760 N   0  0  0  0  0  0  0  0  0  0  0  0
   26.6180    7.7160   -8.5340 C   0  0  0  0  0  0  0  0  0  0  0  0
   24.8010   10.5590   -6.2590 O   0  0  0  0  0  0  0  0  0  0  0  0
   26.7450    9.0780   -8.7670 C   0  0  0  0  0  0  0  0  0  0  0  0
   26.0920    9.9880   -7.9470 C   0  0  0  0  0  0  0  0  0  0  0  0
   27.3340    7.0390   -9.4510 N   0  0  0  0  0  0  0  0  0  0  0  0
   27.9330    7.9450  -10.2970 C   0  0  0  0  0  0  0  0  0  0  0  0
   27.4650    9.1560   -9.7470 C   0  0  0  0  0  0  0  0  0  0  0  0
   25.7370   11.2120   -5.4090 C   0  0  1  0  0  0  0  0  0  0  0  0
   28.7650    7.9080  -11.3920 N   0  0  0  0  0  0  0  0  0  0  0  0
   29.1690    9.0610  -11.9810 C   0  0  0  0  0  0  0  0  0  0  0  0
   30.5270    9.4280  -12.1250 N   0  0  0  0  0  0  0  0  0  0  0  0
   30.5710   10.6650  -12.7830 C   0  0  0  0  0  0  0  0  0  0  0  0
   29.1850   10.9020  -12.9650 C   0  0  0  0  0  0  0  0  0  0  0  0
   28.3530    9.9450  -12.4990 N   0  0  0  0  0  0  0  0  0  0  0  0
   26.8810    9.9470  -12.6020 C   0  0  1  0  0  0  0  0  0  0  0  0
   24.3740    7.9750   -5.5640 N   0  0  0  0  0  0  0  0  0  0  0  0
   24.0870    6.5180   -5.1100 C   0  0  1  0  0  0  0  0  0  0  0  0
   22.9460    6.4900   -4.0840 C   0  0  0  0  0  0  0  0  0  0  0  0
   22.0390    5.4360   -4.0880 N   0  0  0  0  0  0  0  0  0  0  0  0
   20.9950    5.4150   -3.1710 C   0  0  0  0  0  0  0  0  0  0  0  0
   22.8070    7.5220   -3.1640 C   0  0  0  0  0  0  0  0  0  0  0  0
   21.7640    7.5020   -2.2470 C   0  0  0  0  0  0  0  0  0  0  0  0
   20.8610    6.4630   -2.2490 C   0  0  0  0  0  0  0  0  0  0  0  0
   19.5130    6.4500   -1.0720 Cl  0  0  0  0  0  0  0  0  0  0  0  0
   25.7408    6.2480   -7.3037 H   0  0  0  0  0  0  0  0  0  0  0  0
   26.1932   11.0673   -8.1340 H   0  0  0  0  0  0  0  0  0  0  0  0
   27.7378   10.1282  -10.1833 H   0  0  0  0  0  0  0  0  0  0  0  0
   25.4701   11.0258   -4.3582 H   0  0  0  0  0  0  0  0  0  0  0  0
   26.7461   10.8209   -5.6059 H   0  0  0  0  0  0  0  0  0  0  0  0
   25.7183   12.2941   -5.6059 H   0  0  0  0  0  0  0  0  0  0  0  0
   29.0820    7.0020  -11.7656 H   0  0  0  0  0  0  0  0  0  0  0  0
   31.4361   11.2783  -13.0754 H   0  0  0  0  0  0  0  0  0  0  0  0
   28.8093   11.8115  -13.4566 H   0  0  0  0  0  0  0  0  0  0  0  0
   26.4428    9.9476  -11.5930 H   0  0  0  0  0  0  0  0  0  0  0  0
   26.5526   10.8456  -13.1449 H   0  0  0  0  0  0  0  0  0  0  0  0
   26.5502    9.0493  -13.1449 H   0  0  0  0  0  0  0  0  0  0  0  0
   23.9661    8.7753   -5.0600 H   0  0  0  0  0  0  0  0  0  0  0  0
   23.8019    5.9156   -5.9851 H   0  0  0  0  0  0  0  0  0  0  0  0
   24.9942    6.1049   -4.6448 H   0  0  0  0  0  0  0  0  0  0  0  0
   20.2778    4.5810   -3.1684 H   0  0  0  0  0  0  0  0  0  0  0  0
   23.5241    8.3561   -3.1619 H   0  0  0  0  0  0  0  0  0  0  0  0
   21.6593    8.3185   -1.5173 H   0  0  0  0  0  0  0  0  0  0  0  0
  1  7  1  0
  1  2  2  0
  1  5  1  0
  2  3  1  0
  2 19  1  0
  3  4  1  0
  4  8  2  0
  4  6  1  0
  6 10  1  0
  6  7  2  0
  8  9  1  0
  9 12  1  0
  9 10  2  0
 12 13  1  0
 13 17  1  0
 13 14  2  0
 14 15  1  0
 15 16  2  0
 16 17  1  0
 17 18  1  0
  5 11  1  0
 19 20  1  0
 20 21  1  0
 21 22  2  0
 21 24  1  0
 22 23  1  0
 23 26  2  0
 24 25  2  0
 25 26  1  0
 26 27  1  0
  3 28  1  0
  7 29  1  0
 10 30  1  0
 11 31  1  1
 11 32  1  0
 11 33  1  0
 12 34  1  0
 15 35  1  0
 16 36  1  0
 18 37  1  1
 18 38  1  0
 18 39  1  0
 19 40  1  0
 20 41  1  6
 20 42  1  0
 23 43  1  0
 24 44  1  0
 25 45  1  0
M  END
>  <Pose ID>  (46)
117

>  <Score>  (46)
-7.265293121337891

>  <smiles>  (46)
COc1cc2cc(Nc3nccn3C)nc-2[nH]c1NCc1ccc(Cl)cn1

$$$$

     RDKit          3D

 44 47  0  0  0  0  0  0  0  0999 V2000
   25.2070    9.3790   -6.9280 C   0  0  0  0  0  0  0  0  0  0  0  0
   25.0580    8.0110   -6.7230 C   0  0  0  0  0  0  0  0  0  0  0  0
   25.7120    7.1080   -7.5490 N   0  0  0  0  0  0  0  0  0  0  0  0
   26.5220    7.5730   -8.5810 C   0  0  0  0  0  0  0  0  0  0  0  0
   24.7010   10.3970   -6.2880 O   0  0  0  0  0  0  0  0  0  0  0  0
   26.6740    8.9380   -8.7830 C   0  0  0  0  0  0  0  0  0  0  0  0
   26.0190    9.8420   -7.9600 C   0  0  0  0  0  0  0  0  0  0  0  0
   27.2460    6.9040   -9.4960 N   0  0  0  0  0  0  0  0  0  0  0  0
   27.8790    7.8170  -10.3110 C   0  0  0  0  0  0  0  0  0  0  0  0
   27.4150    9.0250   -9.7460 C   0  0  0  0  0  0  0  0  0  0  0  0
   25.6300   11.0200   -5.4040 C   0  0  1  0  0  0  0  0  0  0  0  0
   28.7310    7.7890  -11.3890 N   0  0  0  0  0  0  0  0  0  0  0  0
   29.1630    8.9440  -11.9480 C   0  0  0  0  0  0  0  0  0  0  0  0
   30.5310    9.2950  -12.0560 N   0  0  0  0  0  0  0  0  0  0  0  0
   30.6080   10.5430  -12.6880 C   0  0  0  0  0  0  0  0  0  0  0  0
   29.2290   10.8060  -12.8950 C   0  0  0  0  0  0  0  0  0  0  0  0
   28.3730    9.8520  -12.4660 N   0  0  0  0  0  0  0  0  0  0  0  0
   26.9050    9.8790  -12.5970 C   0  0  1  0  0  0  0  0  0  0  0  0
   26.1860   11.3240   -8.1840 C   0  0  1  0  0  0  0  0  0  0  0  0
   24.0920    7.7570   -5.6320 C   0  0  0  0  0  0  0  0  0  0  0  0
   24.2670    8.3690   -4.3960 N   0  0  0  0  0  0  0  0  0  0  0  0
   23.2580    8.3080   -3.4420 C   0  0  0  0  0  0  0  0  0  0  0  0
   22.0770    7.6330   -3.7220 N   0  0  0  0  0  0  0  0  0  0  0  0
   21.9030    7.0190   -4.9580 C   0  0  0  0  0  0  0  0  0  0  0  0
   22.8960    7.0960   -5.9180 C   0  0  0  0  0  0  0  0  0  0  0  0
   23.4140    8.8570   -2.3360 O   0  0  0  0  0  0  0  0  0  0  0  0
   25.6760   11.6490   -9.4670 O   0  0  0  0  0  0  0  0  0  0  0  0
   25.5983    6.0954   -7.3987 H   0  0  0  0  0  0  0  0  0  0  0  0
   27.7097   10.0017  -10.1573 H   0  0  0  0  0  0  0  0  0  0  0  0
   25.3349   10.8221   -4.3630 H   0  0  0  0  0  0  0  0  0  0  0  0
   26.6362   10.6134   -5.5835 H   0  0  0  0  0  0  0  0  0  0  0  0
   25.6357   12.1052   -5.5835 H   0  0  0  0  0  0  0  0  0  0  0  0
   29.0422    6.8855  -11.7733 H   0  0  0  0  0  0  0  0  0  0  0  0
   31.4886   11.1480  -12.9498 H   0  0  0  0  0  0  0  0  0  0  0  0
   28.8777   11.7309  -13.3758 H   0  0  0  0  0  0  0  0  0  0  0  0
   26.4477    9.8874  -11.5966 H   0  0  0  0  0  0  0  0  0  0  0  0
   26.6024   10.7829  -13.1461 H   0  0  0  0  0  0  0  0  0  0  0  0
   26.5694    8.9869  -13.1461 H   0  0  0  0  0  0  0  0  0  0  0  0
   25.6317   11.8799   -7.4134 H   0  0  0  0  0  0  0  0  0  0  0  0
   27.2503   11.5952   -8.1234 H   0  0  0  0  0  0  0  0  0  0  0  0
   21.3299    7.5870   -3.0144 H   0  0  0  0  0  0  0  0  0  0  0  0
   20.9737    6.4710   -5.1725 H   0  0  0  0  0  0  0  0  0  0  0  0
   22.7434    6.6368   -6.9059 H   0  0  0  0  0  0  0  0  0  0  0  0
   24.8453   12.1783   -9.3675 H   0  0  0  0  0  0  0  0  0  0  0  0
  1  7  1  0
  1  2  2  0
  1  5  1  0
  2  3  1  0
  2 20  1  0
  3  4  1  0
  4  8  2  0
  4  6  1  0
  6 10  1  0
  6  7  2  0
  7 19  1  0
  8  9  1  0
  9 12  1  0
  9 10  2  0
 12 13  1  0
 13 17  1  0
 13 14  2  0
 14 15  1  0
 15 16  2  0
 16 17  1  0
 17 18  1  0
 20 25  1  0
 20 21  2  0
 21 22  1  0
 22 23  1  0
 22 26  2  0
 23 24  1  0
 24 25  2  0
  5 11  1  0
 19 27  1  0
  3 28  1  0
 10 29  1  0
 11 30  1  1
 11 31  1  0
 11 32  1  0
 12 33  1  0
 15 34  1  0
 16 35  1  0
 18 36  1  1
 18 37  1  0
 18 38  1  0
 19 39  1  1
 19 40  1  0
 23 41  1  0
 24 42  1  0
 25 43  1  0
 27 44  1  0
M  END
>  <Pose ID>  (47)
2

>  <Score>  (47)
-7.256816387176514

>  <smiles>  (47)
COc1c(-c2cc[nH]c(=O)n2)[nH]c2nc(Nc3nccn3C)cc-2c1CO

$$$$

     RDKit          3D

 38 40  0  0  0  0  0  0  0  0999 V2000
   25.1850    9.3850   -6.9140 C   0  0  0  0  0  0  0  0  0  0  0  0
   25.0660    8.0120   -6.7100 C   0  0  0  0  0  0  0  0  0  0  0  0
   25.7300    7.1250   -7.5450 N   0  0  0  0  0  0  0  0  0  0  0  0
   26.5190    7.6090   -8.5860 C   0  0  0  0  0  0  0  0  0  0  0  0
   24.6660   10.3900   -6.2660 O   0  0  0  0  0  0  0  0  0  0  0  0
   26.6420    8.9760   -8.7850 C   0  0  0  0  0  0  0  0  0  0  0  0
   25.9780    9.8630   -7.9540 C   0  0  0  0  0  0  0  0  0  0  0  0
   27.2490    6.9550   -9.5080 N   0  0  0  0  0  0  0  0  0  0  0  0
   27.8530    7.8810  -10.3280 C   0  0  0  0  0  0  0  0  0  0  0  0
   27.3720    9.0790   -9.7560 C   0  0  0  0  0  0  0  0  0  0  0  0
   25.5900   11.0290   -5.3910 C   0  0  1  0  0  0  0  0  0  0  0  0
   28.6950    7.8740  -11.4150 N   0  0  0  0  0  0  0  0  0  0  0  0
   29.0990    9.0400  -11.9740 C   0  0  0  0  0  0  0  0  0  0  0  0
   30.4570    9.4170  -12.0970 N   0  0  0  0  0  0  0  0  0  0  0  0
   30.5040   10.6680  -12.7260 C   0  0  0  0  0  0  0  0  0  0  0  0
   29.1170   10.9050  -12.9190 C   0  0  0  0  0  0  0  0  0  0  0  0
   28.2850    9.9320  -12.4820 N   0  0  0  0  0  0  0  0  0  0  0  0
   26.8140    9.9300  -12.5990 C   0  0  1  0  0  0  0  0  0  0  0  0
   26.1790   10.3410  -13.9290 C   0  0  1  0  0  0  0  0  0  0  0  0
   24.2270    7.4990   -5.5970 C   0  0  0  0  0  0  0  0  0  0  0  0
   24.0540    6.2130   -5.6290 O   0  0  0  0  0  0  0  0  0  0  0  0
   23.6760    8.2850   -4.5900 N   0  0  0  0  0  0  0  0  0  0  0  0
   25.6397    6.1099   -7.3954 H   0  0  0  0  0  0  0  0  0  0  0  0
   26.0772   10.9465   -8.1158 H   0  0  0  0  0  0  0  0  0  0  0  0
   27.6439   10.0619  -10.1683 H   0  0  0  0  0  0  0  0  0  0  0  0
   25.3038   10.8311   -4.3475 H   0  0  0  0  0  0  0  0  0  0  0  0
   26.6009   10.6361   -5.5748 H   0  0  0  0  0  0  0  0  0  0  0  0
   25.5791   12.1135   -5.5748 H   0  0  0  0  0  0  0  0  0  0  0  0
   29.0200    6.9782  -11.8060 H   0  0  0  0  0  0  0  0  0  0  0  0
   31.3702   11.2906  -12.9945 H   0  0  0  0  0  0  0  0  0  0  0  0
   28.7423   11.8234  -13.3946 H   0  0  0  0  0  0  0  0  0  0  0  0
   26.4739    8.9068  -12.3811 H   0  0  0  0  0  0  0  0  0  0  0  0
   26.4907   10.7129  -11.8972 H   0  0  0  0  0  0  0  0  0  0  0  0
   25.2700   10.9293  -13.7350 H   0  0  0  0  0  0  0  0  0  0  0  0
   26.8932   10.9486  -14.5041 H   0  0  0  0  0  0  0  0  0  0  0  0
   25.9172    9.4406  -14.5041 H   0  0  0  0  0  0  0  0  0  0  0  0
   23.1040    7.8501   -3.8521 H   0  0  0  0  0  0  0  0  0  0  0  0
   23.8401    9.3018   -4.5824 H   0  0  0  0  0  0  0  0  0  0  0  0
  1  7  1  0
  1  2  2  0
  1  5  1  0
  2  3  1  0
  2 20  1  0
  3  4  1  0
  4  8  2  0
  4  6  1  0
  6 10  1  0
  6  7  2  0
  8  9  1  0
  9 12  1  0
  9 10  2  0
 12 13  1  0
 13 17  1  0
 13 14  2  0
 14 15  1  0
 15 16  2  0
 16 17  1  0
 17 18  1  0
 18 19  1  0
 20 21  2  0
 20 22  1  0
  5 11  1  0
  3 23  1  0
  7 24  1  0
 10 25  1  0
 11 26  1  1
 11 27  1  0
 11 28  1  0
 12 29  1  0
 15 30  1  0
 16 31  1  0
 18 32  1  1
 18 33  1  0
 19 34  1  1
 19 35  1  0
 19 36  1  0
 22 37  1  0
 22 38  1  0
M  END
>  <Pose ID>  (48)
5

>  <Score>  (48)
-7.244272708892822

>  <smiles>  (48)
CCn1ccnc1Nc1cc2cc(OC)c(C(N)=O)[nH]c-2n1

$$$$

     RDKit          3D

 54 58  0  0  0  0  0  0  0  0999 V2000
   25.2140    9.6530   -6.6580 C   0  0  0  0  0  0  0  0  0  0  0  0
   24.9060    8.3220   -6.3820 C   0  0  0  0  0  0  0  0  0  0  0  0
   25.4390    7.3050   -7.1620 N   0  0  0  0  0  0  0  0  0  0  0  0
   26.2830    7.6170   -8.2250 C   0  0  0  0  0  0  0  0  0  0  0  0
   24.8390   10.7510   -6.0690 O   0  0  0  0  0  0  0  0  0  0  0  0
   26.5920    8.9420   -8.5010 C   0  0  0  0  0  0  0  0  0  0  0  0
   26.0590    9.9590   -7.7180 C   0  0  0  0  0  0  0  0  0  0  0  0
   26.9130    6.8200   -9.1080 N   0  0  0  0  0  0  0  0  0  0  0  0
   27.6350    7.6080   -9.9750 C   0  0  0  0  0  0  0  0  0  0  0  0
   27.3260    8.8900   -9.4710 C   0  0  0  0  0  0  0  0  0  0  0  0
   25.8460   11.3040   -5.2280 C   0  0  1  0  0  0  0  0  0  0  0  0
   28.4640    7.4270  -11.0550 N   0  0  0  0  0  0  0  0  0  0  0  0
   29.0240    8.4920  -11.6770 C   0  0  0  0  0  0  0  0  0  0  0  0
   30.4200    8.6730  -11.8140 N   0  0  0  0  0  0  0  0  0  0  0  0
   30.6350    9.8700  -12.5110 C   0  0  0  0  0  0  0  0  0  0  0  0
   29.2930   10.2810  -12.7210 C   0  0  0  0  0  0  0  0  0  0  0  0
   28.3360    9.4590  -12.2350 N   0  0  0  0  0  0  0  0  0  0  0  0
   26.8800    9.6520  -12.3600 C   0  0  1  0  0  0  0  0  0  0  0  0
   24.0550    8.0080   -5.3040 C   0  0  0  0  0  0  0  0  0  0  0  0
   24.1090    8.5650   -4.1270 N   0  0  0  0  0  0  0  0  0  0  0  0
   22.9430    7.1440   -5.2970 C   0  0  0  0  0  0  0  0  0  0  0  0
   23.1640    8.1540   -3.4010 N   0  0  0  0  0  0  0  0  0  0  0  0
   22.3990    7.2290   -4.0080 C   0  0  0  0  0  0  0  0  0  0  0  0
   22.9720    8.6380   -2.0130 C   0  0  1  0  0  0  0  0  0  0  0  0
   22.4890    6.3810   -6.3320 O   0  0  0  0  0  0  0  0  0  0  0  0
   21.3230    6.4480   -3.6620 N   0  0  0  0  0  0  0  0  0  0  0  0
   21.5220    5.3070   -2.8000 C   0  0  2  0  0  0  0  0  0  0  0  0
   21.7930    5.5800   -1.2790 C   0  0  1  0  0  0  0  0  0  0  0  0
   22.9380    4.5860   -1.3500 C   0  0  1  0  0  0  0  0  0  0  0  0
   22.8380    4.6700   -2.8450 C   0  0  1  0  0  0  0  0  0  0  0  0
   25.2109    6.3221   -6.9552 H   0  0  0  0  0  0  0  0  0  0  0  0
   26.3064   11.0081   -7.9377 H   0  0  0  0  0  0  0  0  0  0  0  0
   27.7306    9.8019   -9.9343 H   0  0  0  0  0  0  0  0  0  0  0  0
   25.5684   11.1515   -4.1746 H   0  0  0  0  0  0  0  0  0  0  0  0
   26.8061   10.8066   -5.4298 H   0  0  0  0  0  0  0  0  0  0  0  0
   25.9415   12.3811   -5.4298 H   0  0  0  0  0  0  0  0  0  0  0  0
   28.6612    6.4747  -11.3943 H   0  0  0  0  0  0  0  0  0  0  0  0
   31.5766   10.3535  -12.8102 H   0  0  0  0  0  0  0  0  0  0  0  0
   29.0458   11.2141  -13.2485 H   0  0  0  0  0  0  0  0  0  0  0  0
   26.4306    9.7116  -11.3577 H   0  0  0  0  0  0  0  0  0  0  0  0
   26.6794   10.5846  -12.9078 H   0  0  0  0  0  0  0  0  0  0  0  0
   26.4434    8.8039  -12.9078 H   0  0  0  0  0  0  0  0  0  0  0  0
   23.2826    7.8551   -1.3054 H   0  0  0  0  0  0  0  0  0  0  0  0
   23.5803    9.5402   -1.8518 H   0  0  0  0  0  0  0  0  0  0  0  0
   21.9106    8.8778   -1.8518 H   0  0  0  0  0  0  0  0  0  0  0  0
   21.6914    5.8071   -6.2112 H   0  0  0  0  0  0  0  0  0  0  0  0
   20.3821    6.6746   -4.0146 H   0  0  0  0  0  0  0  0  0  0  0  0
   20.6097    4.7908   -3.1335 H   0  0  0  0  0  0  0  0  0  0  0  0
   22.0986    6.6113   -1.0487 H   0  0  0  0  0  0  0  0  0  0  0  0
   20.9944    5.4790   -0.5293 H   0  0  0  0  0  0  0  0  0  0  0  0
   23.8882    4.9513   -0.9332 H   0  0  0  0  0  0  0  0  0  0  0  0
   22.8984    3.6216   -0.8224 H   0  0  0  0  0  0  0  0  0  0  0  0
   22.8308    3.6868   -3.3383 H   0  0  0  0  0  0  0  0  0  0  0  0
   23.6467    5.1654   -3.4023 H   0  0  0  0  0  0  0  0  0  0  0  0
  1  7  1  0
  1  2  2  0
  1  5  1  0
  2  3  1  0
  2 19  1  0
  3  4  1  0
  4  8  2  0
  4  6  1  0
  6 10  1  0
  6  7  2  0
  8  9  1  0
  9 12  1  0
  9 10  2  0
 12 13  1  0
 13 17  1  0
 13 14  2  0
 14 15  1  0
 15 16  2  0
 16 17  1  0
 17 18  1  0
 19 21  1  0
 19 20  2  0
 20 22  1  0
 21 25  1  0
 21 23  2  0
 22 23  1  0
 22 24  1  0
 23 26  1  0
 26 27  1  0
 27 30  1  0
 27 28  1  0
 28 29  1  0
 29 30  1  0
  5 11  1  0
  3 31  1  0
  7 32  1  0
 10 33  1  0
 11 34  1  1
 11 35  1  0
 11 36  1  0
 12 37  1  0
 15 38  1  0
 16 39  1  0
 18 40  1  1
 18 41  1  0
 18 42  1  0
 24 43  1  1
 24 44  1  0
 24 45  1  0
 25 46  1  0
 26 47  1  0
 27 48  1  1
 28 49  1  6
 28 50  1  0
 29 51  1  6
 29 52  1  0
 30 53  1  6
 30 54  1  0
M  END
>  <Pose ID>  (49)
41

>  <Score>  (49)
-7.242695331573486

>  <smiles>  (49)
COc1cc2cc(Nc3nccn3C)nc-2[nH]c1-c1nn(C)c(NC2CCC2)c1O

$$$$

     RDKit          3D

 54 58  0  0  0  0  0  0  0  0999 V2000
   25.2440    9.3730   -6.8100 C   0  0  0  0  0  0  0  0  0  0  0  0
   25.2030    8.0000   -6.5740 C   0  0  0  0  0  0  0  0  0  0  0  0
   25.8870    7.1300   -7.4140 N   0  0  0  0  0  0  0  0  0  0  0  0
   26.6200    7.6330   -8.4870 C   0  0  0  0  0  0  0  0  0  0  0  0
   24.6890   10.3640   -6.1680 O   0  0  0  0  0  0  0  0  0  0  0  0
   26.6630    9.0000   -8.7210 C   0  0  0  0  0  0  0  0  0  0  0  0
   25.9750    9.8710   -7.8840 C   0  0  0  0  0  0  0  0  0  0  0  0
   27.3550    6.9970   -9.4170 N   0  0  0  0  0  0  0  0  0  0  0  0
   27.8830    7.9370  -10.2750 C   0  0  0  0  0  0  0  0  0  0  0  0
   27.3550    9.1200   -9.7140 C   0  0  0  0  0  0  0  0  0  0  0  0
   25.6050   11.0690   -5.3370 C   0  0  1  0  0  0  0  0  0  0  0  0
   28.6910    7.9530  -11.3870 N   0  0  0  0  0  0  0  0  0  0  0  0
   29.0130    9.1250  -11.9820 C   0  0  0  0  0  0  0  0  0  0  0  0
   30.3470    9.5710  -12.1580 N   0  0  0  0  0  0  0  0  0  0  0  0
   30.3040   10.8090  -12.8130 C   0  0  0  0  0  0  0  0  0  0  0  0
   28.9030   10.9640  -12.9670 C   0  0  0  0  0  0  0  0  0  0  0  0
   28.1380    9.9600  -12.4840 N   0  0  0  0  0  0  0  0  0  0  0  0
   26.6670    9.8760  -12.5550 C   0  0  1  0  0  0  0  0  0  0  0  0
   25.9690   10.2250  -13.8730 C   0  0  1  0  0  0  0  0  0  0  0  0
   24.4890    7.5100   -5.5160 N   0  0  0  0  0  0  0  0  0  0  0  0
   23.7810    8.2710   -4.6290 C   0  0  0  0  0  0  0  0  0  0  0  0
   24.4500    6.0670   -5.2490 N   0  0  0  0  0  0  0  0  0  0  0  0
   23.6890    6.0330   -4.1710 C   0  0  0  0  0  0  0  0  0  0  0  0
   23.2420    7.3500   -3.7800 C   0  0  0  0  0  0  0  0  0  0  0  0
   23.4850    4.7780   -3.6540 N   0  0  0  0  0  0  0  0  0  0  0  0
   22.6380    4.4830   -2.5160 C   0  0  2  0  0  0  0  0  0  0  0  0
   23.5360    4.3980   -1.3000 C   0  0  1  0  0  0  0  0  0  0  0  0
   22.7440    3.1050   -0.8940 C   0  0  1  0  0  0  0  0  0  0  0  0
   22.2030    3.1150   -2.2860 C   0  0  1  0  0  0  0  0  0  0  0  0
   22.4150    7.6270   -2.7320 O   0  0  0  0  0  0  0  0  0  0  0  0
   25.8523    6.1147   -7.2438 H   0  0  0  0  0  0  0  0  0  0  0  0
   26.0086   10.9545   -8.0709 H   0  0  0  0  0  0  0  0  0  0  0  0
   27.5603   10.1064  -10.1553 H   0  0  0  0  0  0  0  0  0  0  0  0
   25.3612   10.8813   -4.2809 H   0  0  0  0  0  0  0  0  0  0  0  0
   26.6286   10.7235   -5.5440 H   0  0  0  0  0  0  0  0  0  0  0  0
   25.5330   12.1469   -5.5440 H   0  0  0  0  0  0  0  0  0  0  0  0
   29.0534    7.0680  -11.7695 H   0  0  0  0  0  0  0  0  0  0  0  0
   31.1252   11.4730  -13.1208 H   0  0  0  0  0  0  0  0  0  0  0  0
   28.4646   11.8492  -13.4510 H   0  0  0  0  0  0  0  0  0  0  0  0
   26.3903    8.8406  -12.3074 H   0  0  0  0  0  0  0  0  0  0  0  0
   26.3230   10.6548  -11.8584 H   0  0  0  0  0  0  0  0  0  0  0  0
   25.0037   10.7076  -13.6601 H   0  0  0  0  0  0  0  0  0  0  0  0
   26.6027   10.9123  -14.4527 H   0  0  0  0  0  0  0  0  0  0  0  0
   25.7993    9.3057  -14.4527 H   0  0  0  0  0  0  0  0  0  0  0  0
   23.6719    9.3653   -4.6054 H   0  0  0  0  0  0  0  0  0  0  0  0
   23.9685    3.9896   -4.1074 H   0  0  0  0  0  0  0  0  0  0  0  0
   21.8306    5.2123   -2.6777 H   0  0  0  0  0  0  0  0  0  0  0  0
   24.5999    4.2329   -1.5256 H   0  0  0  0  0  0  0  0  0  0  0  0
   23.6564    5.2448   -0.6083 H   0  0  0  0  0  0  0  0  0  0  0  0
   23.3714    2.2359   -0.6472 H   0  0  0  0  0  0  0  0  0  0  0  0
   22.0914    3.0681   -0.0092 H   0  0  0  0  0  0  0  0  0  0  0  0
   21.1114    2.9878   -2.3334 H   0  0  0  0  0  0  0  0  0  0  0  0
   22.5206    2.3293   -2.9873 H   0  0  0  0  0  0  0  0  0  0  0  0
   22.0697    6.8917   -2.1662 H   0  0  0  0  0  0  0  0  0  0  0  0
  1  7  1  0
  1  2  2  0
  1  5  1  0
  2  3  1  0
  2 20  1  0
  3  4  1  0
  4  8  2  0
  4  6  1  0
  6 10  1  0
  6  7  2  0
  8  9  1  0
  9 12  1  0
  9 10  2  0
 12 13  1  0
 13 17  1  0
 13 14  2  0
 14 15  1  0
 15 16  2  0
 16 17  1  0
 17 18  1  0
 18 19  1  0
 20 22  1  0
 20 21  1  0
 21 24  2  0
 22 23  2  0
 23 24  1  0
 23 25  1  0
 24 30  1  0
 25 26  1  0
 26 29  1  0
 26 27  1  0
 27 28  1  0
 28 29  1  0
  5 11  1  0
  3 31  1  0
  7 32  1  0
 10 33  1  0
 11 34  1  1
 11 35  1  0
 11 36  1  0
 12 37  1  0
 15 38  1  0
 16 39  1  0
 18 40  1  1
 18 41  1  0
 19 42  1  1
 19 43  1  0
 19 44  1  0
 21 45  1  0
 25 46  1  0
 26 47  1  1
 27 48  1  6
 27 49  1  0
 28 50  1  6
 28 51  1  0
 29 52  1  1
 29 53  1  0
 30 54  1  0
M  END
>  <Pose ID>  (50)
22

>  <Score>  (50)
-7.241857051849365

>  <smiles>  (50)
CCn1ccnc1Nc1cc2cc(OC)c(-n3cc(O)c(NC4CCC4)n3)[nH]c-2n1

$$$$

     RDKit          3D

 47 50  0  0  0  0  0  0  0  0999 V2000
   25.4030    9.3210   -6.8660 C   0  0  0  0  0  0  0  0  0  0  0  0
   25.2640    7.9420   -6.7180 C   0  0  0  0  0  0  0  0  0  0  0  0
   25.8770    7.0790   -7.6180 N   0  0  0  0  0  0  0  0  0  0  0  0
   26.6380    7.5940   -8.6660 C   0  0  0  0  0  0  0  0  0  0  0  0
   24.9280   10.3050   -6.1570 O   0  0  0  0  0  0  0  0  0  0  0  0
   26.7810    8.9650   -8.8090 C   0  0  0  0  0  0  0  0  0  0  0  0
   26.1670    9.8290   -7.9140 C   0  0  0  0  0  0  0  0  0  0  0  0
   27.3180    6.9670   -9.6400 N   0  0  0  0  0  0  0  0  0  0  0  0
   27.9110    7.9190  -10.4430 C   0  0  0  0  0  0  0  0  0  0  0  0
   27.4770    9.1000   -9.8000 C   0  0  0  0  0  0  0  0  0  0  0  0
   25.8980   10.8860   -5.2910 C   0  0  1  0  0  0  0  0  0  0  0  0
   28.7100    7.9460  -11.5590 N   0  0  0  0  0  0  0  0  0  0  0  0
   29.1200    9.1260  -12.0810 C   0  0  0  0  0  0  0  0  0  0  0  0
   30.4790    9.4840  -12.2390 N   0  0  0  0  0  0  0  0  0  0  0  0
   30.5270   10.7590  -12.8150 C   0  0  0  0  0  0  0  0  0  0  0  0
   29.1410   11.0310  -12.9460 C   0  0  0  0  0  0  0  0  0  0  0  0
   28.3060   10.0560  -12.5190 N   0  0  0  0  0  0  0  0  0  0  0  0
   26.8310   10.0870  -12.5810 C   0  0  1  0  0  0  0  0  0  0  0  0
   26.1570   10.5680  -13.8670 C   0  0  1  0  0  0  0  0  0  0  0  0
   24.4540    7.3960   -5.5990 C   0  0  0  0  0  0  0  0  0  0  0  0
   23.9280    6.2880   -5.6660 O   0  0  0  0  0  0  0  0  0  0  0  0
   24.2340    8.1450   -4.3880 N   0  0  0  0  0  0  0  0  0  0  0  0
   23.5910    7.7180   -3.3130 C   0  0  0  0  0  0  0  0  0  0  0  0
   23.3120    6.3740   -3.0950 C   0  0  0  0  0  0  0  0  0  0  0  0
   22.6770    5.9790   -1.9220 N   0  0  0  0  0  0  0  0  0  0  0  0
   22.3230    6.9280   -0.9710 C   0  0  0  0  0  0  0  0  0  0  0  0
   22.6030    8.2720   -1.1900 C   0  0  0  0  0  0  0  0  0  0  0  0
   23.2360    8.6620   -2.3750 C   0  0  0  0  0  0  0  0  0  0  0  0
   22.1560    9.4950    0.0380 Cl  0  0  0  0  0  0  0  0  0  0  0  0
   25.7692    6.0603   -7.5109 H   0  0  0  0  0  0  0  0  0  0  0  0
   26.2836   10.9164   -8.0321 H   0  0  0  0  0  0  0  0  0  0  0  0
   27.7547   10.0955  -10.1767 H   0  0  0  0  0  0  0  0  0  0  0  0
   25.6067   10.7115   -4.2447 H   0  0  0  0  0  0  0  0  0  0  0  0
   26.8797   10.4271   -5.4797 H   0  0  0  0  0  0  0  0  0  0  0  0
   25.9567   11.9681   -5.4797 H   0  0  0  0  0  0  0  0  0  0  0  0
   28.9995    7.0625  -12.0022 H   0  0  0  0  0  0  0  0  0  0  0  0
   31.3953   11.3763  -13.0890 H   0  0  0  0  0  0  0  0  0  0  0  0
   28.7684   11.9758  -13.3685 H   0  0  0  0  0  0  0  0  0  0  0  0
   26.4781    9.0619  -12.3951 H   0  0  0  0  0  0  0  0  0  0  0  0
   26.5495   10.8440  -11.8342 H   0  0  0  0  0  0  0  0  0  0  0  0
   25.2857   11.1898  -13.6138 H   0  0  0  0  0  0  0  0  0  0  0  0
   26.8720   11.1611  -14.4560 H   0  0  0  0  0  0  0  0  0  0  0  0
   25.8286    9.6990  -14.4560 H   0  0  0  0  0  0  0  0  0  0  0  0
   24.6126    9.1024   -4.3560 H   0  0  0  0  0  0  0  0  0  0  0  0
   23.5929    5.6238   -3.8488 H   0  0  0  0  0  0  0  0  0  0  0  0
   21.8206    6.6155   -0.0437 H   0  0  0  0  0  0  0  0  0  0  0  0
   23.4507    9.7252   -2.5581 H   0  0  0  0  0  0  0  0  0  0  0  0
  1  7  1  0
  1  2  2  0
  1  5  1  0
  2  3  1  0
  2 20  1  0
  3  4  1  0
  4  8  2  0
  4  6  1  0
  6 10  1  0
  6  7  2  0
  8  9  1  0
  9 12  1  0
  9 10  2  0
 12 13  1  0
 13 17  1  0
 13 14  2  0
 14 15  1  0
 15 16  2  0
 16 17  1  0
 17 18  1  0
 18 19  1  0
 20 21  2  0
 20 22  1  0
 22 23  1  0
 23 24  2  0
 23 28  1  0
 24 25  1  0
 25 26  2  0
 26 27  1  0
 27 28  2  0
 27 29  1  0
  5 11  1  0
  3 30  1  0
  7 31  1  0
 10 32  1  0
 11 33  1  1
 11 34  1  0
 11 35  1  0
 12 36  1  0
 15 37  1  0
 16 38  1  0
 18 39  1  1
 18 40  1  0
 19 41  1  1
 19 42  1  0
 19 43  1  0
 22 44  1  0
 24 45  1  0
 26 46  1  0
 28 47  1  0
M  END
>  <Pose ID>  (51)
8

>  <Score>  (51)
-7.229694843292236

>  <smiles>  (51)
CCn1ccnc1Nc1cc2cc(OC)c(C(=O)Nc3cncc(Cl)c3)[nH]c-2n1

$$$$

     RDKit          3D

 44 47  0  0  0  0  0  0  0  0999 V2000
   25.0830    9.3120   -6.9460 C   0  0  0  0  0  0  0  0  0  0  0  0
   24.9290    7.9460   -6.7270 C   0  0  0  0  0  0  0  0  0  0  0  0
   25.6000    7.0320   -7.5250 N   0  0  0  0  0  0  0  0  0  0  0  0
   26.4340    7.4830   -8.5460 C   0  0  0  0  0  0  0  0  0  0  0  0
   24.5630   10.3390   -6.3310 O   0  0  0  0  0  0  0  0  0  0  0  0
   26.5930    8.8450   -8.7640 C   0  0  0  0  0  0  0  0  0  0  0  0
   25.9190    9.7610   -7.9670 C   0  0  0  0  0  0  0  0  0  0  0  0
   27.1780    6.8010   -9.4340 N   0  0  0  0  0  0  0  0  0  0  0  0
   27.8300    7.7020  -10.2480 C   0  0  0  0  0  0  0  0  0  0  0  0
   27.3550    8.9180   -9.7090 C   0  0  0  0  0  0  0  0  0  0  0  0
   25.4710   10.9710   -5.4380 C   0  0  1  0  0  0  0  0  0  0  0  0
   28.7060    7.6610  -11.3050 N   0  0  0  0  0  0  0  0  0  0  0  0
   29.1540    8.8090  -11.8680 C   0  0  0  0  0  0  0  0  0  0  0  0
   30.5230    9.1580  -11.9500 N   0  0  0  0  0  0  0  0  0  0  0  0
   30.6150   10.3980  -12.5980 C   0  0  0  0  0  0  0  0  0  0  0  0
   29.2420   10.6570  -12.8390 C   0  0  0  0  0  0  0  0  0  0  0  0
   28.3760    9.7090  -12.4160 N   0  0  0  0  0  0  0  0  0  0  0  0
   26.9090    9.7360  -12.5820 C   0  0  1  0  0  0  0  0  0  0  0  0
   24.1460    7.2900   -5.7180 C   0  0  0  0  0  0  0  0  0  0  0  0
   22.7790    7.5390   -5.7040 C   0  0  0  0  0  0  0  0  0  0  0  0
   24.6980    6.3940   -4.8100 C   0  0  0  0  0  0  0  0  0  0  0  0
   23.8840    5.7480   -3.8890 C   0  0  0  0  0  0  0  0  0  0  0  0
   21.9640    6.8920   -4.7830 N   0  0  0  0  0  0  0  0  0  0  0  0
   22.5210    6.0050   -3.8450 C   0  0  0  0  0  0  0  0  0  0  0  0
   21.8030    5.4580   -2.9880 O   0  0  0  0  0  0  0  0  0  0  0  0
   20.5660    6.9450   -4.5040 C   0  0  1  0  0  0  0  0  0  0  0  0
   25.4822    6.0216   -7.3634 H   0  0  0  0  0  0  0  0  0  0  0  0
   26.0447   10.8398   -8.1413 H   0  0  0  0  0  0  0  0  0  0  0  0
   27.6610    9.8889  -10.1258 H   0  0  0  0  0  0  0  0  0  0  0  0
   25.1705   10.7619   -4.4007 H   0  0  0  0  0  0  0  0  0  0  0  0
   26.4856   10.5829   -5.6112 H   0  0  0  0  0  0  0  0  0  0  0  0
   25.4594   12.0572   -5.6112 H   0  0  0  0  0  0  0  0  0  0  0  0
   29.0241    6.7526  -11.6717 H   0  0  0  0  0  0  0  0  0  0  0  0
   31.5013   10.9995  -12.8484 H   0  0  0  0  0  0  0  0  0  0  0  0
   28.9016   11.5750  -13.3405 H   0  0  0  0  0  0  0  0  0  0  0  0
   26.4282    9.7448  -11.5927 H   0  0  0  0  0  0  0  0  0  0  0  0
   26.6195   10.6396  -13.1385 H   0  0  0  0  0  0  0  0  0  0  0  0
   26.5865    8.8436  -13.1385 H   0  0  0  0  0  0  0  0  0  0  0  0
   22.3419    8.2484   -6.4221 H   0  0  0  0  0  0  0  0  0  0  0  0
   25.7801    6.1966   -4.8210 H   0  0  0  0  0  0  0  0  0  0  0  0
   24.3243    5.0248   -3.1868 H   0  0  0  0  0  0  0  0  0  0  0  0
   20.4094    6.9509   -3.4152 H   0  0  0  0  0  0  0  0  0  0  0  0
   20.1394    7.8600   -4.9408 H   0  0  0  0  0  0  0  0  0  0  0  0
   20.0713    6.0650   -4.9408 H   0  0  0  0  0  0  0  0  0  0  0  0
  1  7  1  0
  1  2  2  0
  1  5  1  0
  2  3  1  0
  2 19  1  0
  3  4  1  0
  4  8  2  0
  4  6  1  0
  6 10  1  0
  6  7  2  0
  8  9  1  0
  9 12  1  0
  9 10  2  0
 12 13  1  0
 13 17  1  0
 13 14  2  0
 14 15  1  0
 15 16  2  0
 16 17  1  0
 17 18  1  0
 19 20  2  0
 19 21  1  0
 20 23  1  0
 21 22  2  0
 22 24  1  0
 23 26  1  0
 23 24  1  0
 24 25  2  0
  5 11  1  0
  3 27  1  0
  7 28  1  0
 10 29  1  0
 11 30  1  1
 11 31  1  0
 11 32  1  0
 12 33  1  0
 15 34  1  0
 16 35  1  0
 18 36  1  1
 18 37  1  0
 18 38  1  0
 20 39  1  0
 21 40  1  0
 22 41  1  0
 26 42  1  1
 26 43  1  0
 26 44  1  0
M  END
>  <Pose ID>  (52)
49

>  <Score>  (52)
-7.220362663269043

>  <smiles>  (52)
COc1cc2cc(Nc3nccn3C)nc-2[nH]c1-c1ccc(=O)n(C)c1

$$$$

     RDKit          3D

 53 57  0  0  0  0  0  0  0  0999 V2000
   25.2440    9.3730   -6.8100 C   0  0  0  0  0  0  0  0  0  0  0  0
   25.2030    8.0000   -6.5740 C   0  0  0  0  0  0  0  0  0  0  0  0
   25.8870    7.1300   -7.4140 N   0  0  0  0  0  0  0  0  0  0  0  0
   26.6200    7.6330   -8.4870 C   0  0  0  0  0  0  0  0  0  0  0  0
   24.6890   10.3640   -6.1680 O   0  0  0  0  0  0  0  0  0  0  0  0
   26.6630    9.0000   -8.7210 C   0  0  0  0  0  0  0  0  0  0  0  0
   25.9750    9.8710   -7.8840 C   0  0  0  0  0  0  0  0  0  0  0  0
   27.3550    6.9970   -9.4170 N   0  0  0  0  0  0  0  0  0  0  0  0
   27.8830    7.9370  -10.2750 C   0  0  0  0  0  0  0  0  0  0  0  0
   27.3550    9.1200   -9.7140 C   0  0  0  0  0  0  0  0  0  0  0  0
   25.6050   11.0690   -5.3370 C   0  0  1  0  0  0  0  0  0  0  0  0
   28.6910    7.9530  -11.3870 N   0  0  0  0  0  0  0  0  0  0  0  0
   29.0130    9.1250  -11.9820 C   0  0  0  0  0  0  0  0  0  0  0  0
   30.3470    9.5710  -12.1580 N   0  0  0  0  0  0  0  0  0  0  0  0
   30.3040   10.8090  -12.8130 C   0  0  0  0  0  0  0  0  0  0  0  0
   28.9030   10.9640  -12.9670 C   0  0  0  0  0  0  0  0  0  0  0  0
   28.1380    9.9600  -12.4840 N   0  0  0  0  0  0  0  0  0  0  0  0
   26.6670    9.8760  -12.5550 C   0  0  1  0  0  0  0  0  0  0  0  0
   25.9690   10.2250  -13.8730 C   0  0  1  0  0  0  0  0  0  0  0  0
   24.4890    7.5100   -5.5160 N   0  0  0  0  0  0  0  0  0  0  0  0
   23.7810    8.2710   -4.6290 C   0  0  0  0  0  0  0  0  0  0  0  0
   24.4500    6.0670   -5.2490 N   0  0  0  0  0  0  0  0  0  0  0  0
   23.6890    6.0330   -4.1710 C   0  0  0  0  0  0  0  0  0  0  0  0
   23.2420    7.3500   -3.7800 C   0  0  0  0  0  0  0  0  0  0  0  0
   23.4850    4.7780   -3.6540 N   0  0  0  0  0  0  0  0  0  0  0  0
   22.6380    4.4830   -2.5160 C   0  0  2  0  0  0  0  0  0  0  0  0
   23.5360    4.3980   -1.3000 C   0  0  1  0  0  0  0  0  0  0  0  0
   22.7440    3.1050   -0.8940 C   0  0  1  0  0  0  0  0  0  0  0  0
   22.2030    3.1150   -2.2860 C   0  0  1  0  0  0  0  0  0  0  0  0
   25.8523    6.1147   -7.2438 H   0  0  0  0  0  0  0  0  0  0  0  0
   26.0086   10.9545   -8.0709 H   0  0  0  0  0  0  0  0  0  0  0  0
   27.5603   10.1064  -10.1553 H   0  0  0  0  0  0  0  0  0  0  0  0
   25.3612   10.8813   -4.2809 H   0  0  0  0  0  0  0  0  0  0  0  0
   26.6286   10.7235   -5.5440 H   0  0  0  0  0  0  0  0  0  0  0  0
   25.5330   12.1469   -5.5440 H   0  0  0  0  0  0  0  0  0  0  0  0
   29.0534    7.0680  -11.7695 H   0  0  0  0  0  0  0  0  0  0  0  0
   31.1252   11.4730  -13.1208 H   0  0  0  0  0  0  0  0  0  0  0  0
   28.4646   11.8492  -13.4510 H   0  0  0  0  0  0  0  0  0  0  0  0
   26.3903    8.8406  -12.3074 H   0  0  0  0  0  0  0  0  0  0  0  0
   26.3230   10.6548  -11.8584 H   0  0  0  0  0  0  0  0  0  0  0  0
   25.0037   10.7076  -13.6601 H   0  0  0  0  0  0  0  0  0  0  0  0
   26.6027   10.9123  -14.4527 H   0  0  0  0  0  0  0  0  0  0  0  0
   25.7993    9.3057  -14.4527 H   0  0  0  0  0  0  0  0  0  0  0  0
   23.6719    9.3653   -4.6054 H   0  0  0  0  0  0  0  0  0  0  0  0
   22.5749    7.5736   -2.9344 H   0  0  0  0  0  0  0  0  0  0  0  0
   23.9685    3.9896   -4.1074 H   0  0  0  0  0  0  0  0  0  0  0  0
   21.8306    5.2123   -2.6777 H   0  0  0  0  0  0  0  0  0  0  0  0
   24.5999    4.2329   -1.5256 H   0  0  0  0  0  0  0  0  0  0  0  0
   23.6564    5.2448   -0.6083 H   0  0  0  0  0  0  0  0  0  0  0  0
   23.3714    2.2359   -0.6472 H   0  0  0  0  0  0  0  0  0  0  0  0
   22.0914    3.0681   -0.0092 H   0  0  0  0  0  0  0  0  0  0  0  0
   21.1114    2.9878   -2.3334 H   0  0  0  0  0  0  0  0  0  0  0  0
   22.5206    2.3293   -2.9873 H   0  0  0  0  0  0  0  0  0  0  0  0
  1  7  1  0
  1  2  2  0
  1  5  1  0
  2  3  1  0
  2 20  1  0
  3  4  1  0
  4  8  2  0
  4  6  1  0
  6 10  1  0
  6  7  2  0
  8  9  1  0
  9 12  1  0
  9 10  2  0
 12 13  1  0
 13 17  1  0
 13 14  2  0
 14 15  1  0
 15 16  2  0
 16 17  1  0
 17 18  1  0
 18 19  1  0
 20 22  1  0
 20 21  1  0
 21 24  2  0
 22 23  2  0
 23 24  1  0
 23 25  1  0
 25 26  1  0
 26 29  1  0
 26 27  1  0
 27 28  1  0
 28 29  1  0
  5 11  1  0
  3 30  1  0
  7 31  1  0
 10 32  1  0
 11 33  1  1
 11 34  1  0
 11 35  1  0
 12 36  1  0
 15 37  1  0
 16 38  1  0
 18 39  1  1
 18 40  1  0
 19 41  1  1
 19 42  1  0
 19 43  1  0
 21 44  1  0
 24 45  1  0
 25 46  1  0
 26 47  1  1
 27 48  1  6
 27 49  1  0
 28 50  1  6
 28 51  1  0
 29 52  1  1
 29 53  1  0
M  END
>  <Pose ID>  (53)
21

>  <Score>  (53)
-7.217830181121826

>  <smiles>  (53)
CCn1ccnc1Nc1cc2cc(OC)c(-n3ccc(NC4CCC4)n3)[nH]c-2n1

$$$$

     RDKit          3D

 41 44  0  0  0  0  0  0  0  0999 V2000
   25.2590    9.3920   -6.9680 C   0  0  0  0  0  0  0  0  0  0  0  0
   25.1840    8.0160   -6.7610 C   0  0  0  0  0  0  0  0  0  0  0  0
   25.8740    7.1460   -7.5930 N   0  0  0  0  0  0  0  0  0  0  0  0
   26.6470    7.6530   -8.6340 C   0  0  0  0  0  0  0  0  0  0  0  0
   24.7060   10.3800   -6.3230 O   0  0  0  0  0  0  0  0  0  0  0  0
   26.7250    9.0220   -8.8420 C   0  0  0  0  0  0  0  0  0  0  0  0
   26.0320    9.8930   -8.0090 C   0  0  0  0  0  0  0  0  0  0  0  0
   27.3990    7.0200   -9.5580 N   0  0  0  0  0  0  0  0  0  0  0  0
   27.9710    7.9650  -10.3810 C   0  0  0  0  0  0  0  0  0  0  0  0
   27.4500    9.1470   -9.8120 C   0  0  0  0  0  0  0  0  0  0  0  0
   25.6110   11.0490   -5.4520 C   0  0  1  0  0  0  0  0  0  0  0  0
   28.8120    7.9820  -11.4660 N   0  0  0  0  0  0  0  0  0  0  0  0
   29.1780    9.1580  -12.0300 C   0  0  0  0  0  0  0  0  0  0  0  0
   30.5220    9.5790  -12.1540 N   0  0  0  0  0  0  0  0  0  0  0  0
   30.5260   10.8300  -12.7870 C   0  0  0  0  0  0  0  0  0  0  0  0
   29.1330   11.0180  -12.9810 C   0  0  0  0  0  0  0  0  0  0  0  0
   28.3340   10.0210  -12.5400 N   0  0  0  0  0  0  0  0  0  0  0  0
   26.8640    9.9730  -12.6560 C   0  0  1  0  0  0  0  0  0  0  0  0
   24.4040    7.5070   -5.7050 C   0  0  0  0  0  0  0  0  0  0  0  0
   24.3830    6.0960   -5.4970 C   0  0  0  0  0  0  0  0  0  0  0  0
   23.4320    5.9460   -4.3900 N   0  0  0  0  0  0  0  0  0  0  0  0
   23.0450    7.0420   -4.0740 N   0  0  0  0  0  0  0  0  0  0  0  0
   23.5870    8.0600   -4.7970 C   0  0  0  0  0  0  0  0  0  0  0  0
   22.0740    7.1950   -2.9640 C   0  0  1  0  0  0  0  0  0  0  0  0
   25.8145    6.1290   -7.4410 H   0  0  0  0  0  0  0  0  0  0  0  0
   26.0954   10.9787   -8.1737 H   0  0  0  0  0  0  0  0  0  0  0  0
   27.6885   10.1375  -10.2267 H   0  0  0  0  0  0  0  0  0  0  0  0
   25.3338   10.8441   -4.4074 H   0  0  0  0  0  0  0  0  0  0  0  0
   26.6333   10.6878   -5.6377 H   0  0  0  0  0  0  0  0  0  0  0  0
   25.5655   12.1323   -5.6377 H   0  0  0  0  0  0  0  0  0  0  0  0
   29.1666    7.0959  -11.8532 H   0  0  0  0  0  0  0  0  0  0  0  0
   31.3702   11.4815  -13.0569 H   0  0  0  0  0  0  0  0  0  0  0  0
   28.7278   11.9208  -13.4614 H   0  0  0  0  0  0  0  0  0  0  0  0
   26.4172    9.9584  -11.6509 H   0  0  0  0  0  0  0  0  0  0  0  0
   26.5101   10.8601  -13.2018 H   0  0  0  0  0  0  0  0  0  0  0  0
   26.5687    9.0647  -13.2018 H   0  0  0  0  0  0  0  0  0  0  0  0
   24.9412    5.3145   -6.0334 H   0  0  0  0  0  0  0  0  0  0  0  0
   23.3916    9.1340   -4.6618 H   0  0  0  0  0  0  0  0  0  0  0  0
   22.6008    7.1120   -2.0019 H   0  0  0  0  0  0  0  0  0  0  0  0
   21.5902    8.1805   -3.0333 H   0  0  0  0  0  0  0  0  0  0  0  0
   21.3106    6.4061   -3.0333 H   0  0  0  0  0  0  0  0  0  0  0  0
  1  7  1  0
  1  2  2  0
  1  5  1  0
  2  3  1  0
  2 19  1  0
  3  4  1  0
  4  8  2  0
  4  6  1  0
  6 10  1  0
  6  7  2  0
  8  9  1  0
  9 12  1  0
  9 10  2  0
 12 13  1  0
 13 17  1  0
 13 14  2  0
 14 15  1  0
 15 16  2  0
 16 17  1  0
 17 18  1  0
 19 20  1  0
 19 23  2  0
 20 21  2  0
 21 22  1  0
 22 23  1  0
 22 24  1  0
  5 11  1  0
  3 25  1  0
  7 26  1  0
 10 27  1  0
 11 28  1  1
 11 29  1  0
 11 30  1  0
 12 31  1  0
 15 32  1  0
 16 33  1  0
 18 34  1  1
 18 35  1  0
 18 36  1  0
 20 37  1  0
 23 38  1  0
 24 39  1  1
 24 40  1  0
 24 41  1  0
M  END
>  <Pose ID>  (54)
36

>  <Score>  (54)
-7.212897777557373

>  <smiles>  (54)
COc1cc2cc(Nc3nccn3C)nc-2[nH]c1-c1cnn(C)c1

$$$$

     RDKit          3D

 46 49  0  0  0  0  0  0  0  0999 V2000
   25.1990    9.5280   -6.9110 C   0  0  0  0  0  0  0  0  0  0  0  0
   25.0840    8.1650   -6.6490 C   0  0  0  0  0  0  0  0  0  0  0  0
   25.7640    7.2450   -7.4350 N   0  0  0  0  0  0  0  0  0  0  0  0
   26.5650    7.6860   -8.4850 C   0  0  0  0  0  0  0  0  0  0  0  0
   24.6670   10.5590   -6.3170 O   0  0  0  0  0  0  0  0  0  0  0  0
   26.6830    9.0440   -8.7460 C   0  0  0  0  0  0  0  0  0  0  0  0
   26.0030    9.9650   -7.9620 C   0  0  0  0  0  0  0  0  0  0  0  0
   27.3090    6.9970   -9.3700 N   0  0  0  0  0  0  0  0  0  0  0  0
   27.9190    7.8900  -10.2230 C   0  0  0  0  0  0  0  0  0  0  0  0
   27.4250    9.1080   -9.7110 C   0  0  0  0  0  0  0  0  0  0  0  0
   25.5760   11.2420   -5.4620 C   0  0  1  0  0  0  0  0  0  0  0  0
   28.7750    7.8370  -11.2970 N   0  0  0  0  0  0  0  0  0  0  0  0
   29.1810    8.9810  -11.9020 C   0  0  0  0  0  0  0  0  0  0  0  0
   30.5390    9.3600  -12.0240 N   0  0  0  0  0  0  0  0  0  0  0  0
   30.5850   10.5820  -12.7080 C   0  0  0  0  0  0  0  0  0  0  0  0
   29.2010   10.8000  -12.9280 C   0  0  0  0  0  0  0  0  0  0  0  0
   28.3680    9.8450  -12.4590 N   0  0  0  0  0  0  0  0  0  0  0  0
   26.8990    9.8280  -12.5960 C   0  0  1  0  0  0  0  0  0  0  0  0
   24.2500    7.9880   -5.5740 N   0  0  0  0  0  0  0  0  0  0  0  0
   23.9680    6.5380   -5.0940 C   0  0  1  0  0  0  0  0  0  0  0  0
   22.8040    6.5210   -4.0930 C   0  0  0  0  0  0  0  0  0  0  0  0
   21.9090    5.4570   -4.0940 N   0  0  0  0  0  0  0  0  0  0  0  0
   20.8440    5.4450   -3.2010 C   0  0  0  0  0  0  0  0  0  0  0  0
   22.6330    7.5710   -3.2010 C   0  0  0  0  0  0  0  0  0  0  0  0
   21.5690    7.5600   -2.3070 C   0  0  0  0  0  0  0  0  0  0  0  0
   20.6780    6.5120   -2.3060 C   0  0  0  0  0  0  0  0  0  0  0  0
   21.4080    8.5910   -1.4300 O   0  0  0  0  0  0  0  0  0  0  0  0
   25.6761    6.2371   -7.2417 H   0  0  0  0  0  0  0  0  0  0  0  0
   26.0986   11.0409   -8.1702 H   0  0  0  0  0  0  0  0  0  0  0  0
   27.6974   10.0733  -10.1627 H   0  0  0  0  0  0  0  0  0  0  0  0
   25.3120   11.0436   -4.4127 H   0  0  0  0  0  0  0  0  0  0  0  0
   26.5990   10.8872   -5.6561 H   0  0  0  0  0  0  0  0  0  0  0  0
   25.5199   12.3233   -5.6561 H   0  0  0  0  0  0  0  0  0  0  0  0
   29.1090    6.9263  -11.6433 H   0  0  0  0  0  0  0  0  0  0  0  0
   31.4502   11.1982  -12.9937 H   0  0  0  0  0  0  0  0  0  0  0  0
   28.8277   11.6937  -13.4496 H   0  0  0  0  0  0  0  0  0  0  0  0
   26.4377    9.8227  -11.5974 H   0  0  0  0  0  0  0  0  0  0  0  0
   26.5717   10.7224  -13.1464 H   0  0  0  0  0  0  0  0  0  0  0  0
   26.5925    8.9262  -13.1464 H   0  0  0  0  0  0  0  0  0  0  0  0
   23.8223    8.7951   -5.0980 H   0  0  0  0  0  0  0  0  0  0  0  0
   23.7089    5.9133   -5.9615 H   0  0  0  0  0  0  0  0  0  0  0  0
   24.8686    6.1448   -4.5998 H   0  0  0  0  0  0  0  0  0  0  0  0
   20.1355    4.6036   -3.1962 H   0  0  0  0  0  0  0  0  0  0  0  0
   23.3408    8.4130   -3.2018 H   0  0  0  0  0  0  0  0  0  0  0  0
   19.8332    6.5108   -1.6015 H   0  0  0  0  0  0  0  0  0  0  0  0
   20.6506    8.5848   -0.7924 H   0  0  0  0  0  0  0  0  0  0  0  0
  1  7  1  0
  1  2  2  0
  1  5  1  0
  2  3  1  0
  2 19  1  0
  3  4  1  0
  4  8  2  0
  4  6  1  0
  6 10  1  0
  6  7  2  0
  8  9  1  0
  9 12  1  0
  9 10  2  0
 12 13  1  0
 13 17  1  0
 13 14  2  0
 14 15  1  0
 15 16  2  0
 16 17  1  0
 17 18  1  0
  5 11  1  0
 19 20  1  0
 20 21  1  0
 21 22  2  0
 21 24  1  0
 22 23  1  0
 23 26  2  0
 24 25  2  0
 25 26  1  0
 25 27  1  0
  3 28  1  0
  7 29  1  0
 10 30  1  0
 11 31  1  1
 11 32  1  0
 11 33  1  0
 12 34  1  0
 15 35  1  0
 16 36  1  0
 18 37  1  1
 18 38  1  0
 18 39  1  0
 19 40  1  0
 20 41  1  6
 20 42  1  0
 23 43  1  0
 24 44  1  0
 26 45  1  0
 27 46  1  0
M  END
>  <Pose ID>  (55)
115

>  <Score>  (55)
-7.193478584289551

>  <smiles>  (55)
COc1cc2cc(Nc3nccn3C)nc-2[nH]c1NCc1cc(O)ccn1

$$$$

     RDKit          3D

 45 48  0  0  0  0  0  0  0  0999 V2000
   25.3870    9.6620   -6.9150 C   0  0  0  0  0  0  0  0  0  0  0  0
   25.3900    8.3090   -6.5860 C   0  0  0  0  0  0  0  0  0  0  0  0
   26.1140    7.4070   -7.3530 N   0  0  0  0  0  0  0  0  0  0  0  0
   26.8410    7.8620   -8.4540 C   0  0  0  0  0  0  0  0  0  0  0  0
   24.7890   10.6740   -6.3460 O   0  0  0  0  0  0  0  0  0  0  0  0
   26.8360    9.2090   -8.7790 C   0  0  0  0  0  0  0  0  0  0  0  0
   26.1120   10.1080   -8.0140 C   0  0  0  0  0  0  0  0  0  0  0  0
   27.6080    7.1910   -9.3320 N   0  0  0  0  0  0  0  0  0  0  0  0
   28.1130    8.0860  -10.2470 C   0  0  0  0  0  0  0  0  0  0  0  0
   27.5360    9.2860   -9.7730 C   0  0  0  0  0  0  0  0  0  0  0  0
   25.6700   11.4680   -5.5590 C   0  0  1  0  0  0  0  0  0  0  0  0
   28.9310    8.0530  -11.3510 N   0  0  0  0  0  0  0  0  0  0  0  0
   29.2210    9.1930  -12.0240 C   0  0  0  0  0  0  0  0  0  0  0  0
   30.5370    9.6740  -12.2160 N   0  0  0  0  0  0  0  0  0  0  0  0
   30.4600   10.8610  -12.9560 C   0  0  0  0  0  0  0  0  0  0  0  0
   29.0560   10.9550  -13.1320 C   0  0  0  0  0  0  0  0  0  0  0  0
   28.3210    9.9600  -12.5880 N   0  0  0  0  0  0  0  0  0  0  0  0
   26.8550    9.8190  -12.6680 C   0  0  1  0  0  0  0  0  0  0  0  0
   24.6770    7.8640   -5.4990 N   0  0  0  0  0  0  0  0  0  0  0  0
   24.3730    6.4410   -5.3760 C   0  0  1  0  0  0  0  0  0  0  0  0
   23.3270    6.1560   -4.2920 C   0  0  0  0  0  0  0  0  0  0  0  0
   22.0020    5.9140   -4.6330 N   0  0  0  0  0  0  0  0  0  0  0  0
   21.0610    5.6610   -3.6420 C   0  0  0  0  0  0  0  0  0  0  0  0
   23.7120    6.1450   -2.9560 C   0  0  0  0  0  0  0  0  0  0  0  0
   21.4470    5.6520   -2.3070 N   0  0  0  0  0  0  0  0  0  0  0  0
   22.7790    5.8990   -1.9690 C   0  0  0  0  0  0  0  0  0  0  0  0
   25.0130    6.3760   -2.6210 O   0  0  0  0  0  0  0  0  0  0  0  0
   26.1148    6.4059   -7.1107 H   0  0  0  0  0  0  0  0  0  0  0  0
   26.1106   11.1763   -8.2763 H   0  0  0  0  0  0  0  0  0  0  0  0
   27.7112   10.2468  -10.2792 H   0  0  0  0  0  0  0  0  0  0  0  0
   25.4710   11.2886   -4.4921 H   0  0  0  0  0  0  0  0  0  0  0  0
   26.7112   11.1973   -5.7883 H   0  0  0  0  0  0  0  0  0  0  0  0
   25.5086   12.5317   -5.7883 H   0  0  0  0  0  0  0  0  0  0  0  0
   29.3260    7.1564  -11.6688 H   0  0  0  0  0  0  0  0  0  0  0  0
   31.2613   11.5303  -13.3023 H   0  0  0  0  0  0  0  0  0  0  0  0
   28.5924   11.7890  -13.6793 H   0  0  0  0  0  0  0  0  0  0  0  0
   26.4346    9.7786  -11.6523 H   0  0  0  0  0  0  0  0  0  0  0  0
   26.4326   10.6807  -13.2057 H   0  0  0  0  0  0  0  0  0  0  0  0
   26.6045    8.8926  -13.2057 H   0  0  0  0  0  0  0  0  0  0  0  0
   24.3600    8.5277   -4.7779 H   0  0  0  0  0  0  0  0  0  0  0  0
   23.9894    6.0775   -6.3407 H   0  0  0  0  0  0  0  0  0  0  0  0
   25.3009    5.9244   -5.0894 H   0  0  0  0  0  0  0  0  0  0  0  0
   20.0127    5.4682   -3.9138 H   0  0  0  0  0  0  0  0  0  0  0  0
   23.0859    5.8975   -0.9127 H   0  0  0  0  0  0  0  0  0  0  0  0
   25.2881    6.3684   -1.6700 H   0  0  0  0  0  0  0  0  0  0  0  0
  1  7  1  0
  1  2  2  0
  1  5  1  0
  2  3  1  0
  2 19  1  0
  3  4  1  0
  4  8  2  0
  4  6  1  0
  6 10  1  0
  6  7  2  0
  8  9  1  0
  9 12  1  0
  9 10  2  0
 12 13  1  0
 13 17  1  0
 13 14  2  0
 14 15  1  0
 15 16  2  0
 16 17  1  0
 17 18  1  0
  5 11  1  0
 19 20  1  0
 20 21  1  0
 21 22  2  0
 21 24  1  0
 22 23  1  0
 23 25  2  0
 24 27  1  0
 24 26  2  0
 25 26  1  0
  3 28  1  0
  7 29  1  0
 10 30  1  0
 11 31  1  1
 11 32  1  0
 11 33  1  0
 12 34  1  0
 15 35  1  0
 16 36  1  0
 18 37  1  1
 18 38  1  0
 18 39  1  0
 19 40  1  0
 20 41  1  6
 20 42  1  0
 23 43  1  0
 26 44  1  0
 27 45  1  0
M  END
>  <Pose ID>  (56)
104

>  <Score>  (56)
-7.183674335479736

>  <smiles>  (56)
COc1cc2cc(Nc3nccn3C)nc-2[nH]c1NCc1ncncc1O

$$$$

     RDKit          3D

 54 58  0  0  0  0  0  0  0  0999 V2000
   25.0610    9.1690   -7.0990 C   0  0  0  0  0  0  0  0  0  0  0  0
   24.9850    7.7920   -6.9160 C   0  0  0  0  0  0  0  0  0  0  0  0
   25.7170    6.9410   -7.7300 N   0  0  0  0  0  0  0  0  0  0  0  0
   26.5340    7.4670   -8.7270 C   0  0  0  0  0  0  0  0  0  0  0  0
   24.4730   10.1450   -6.4630 O   0  0  0  0  0  0  0  0  0  0  0  0
   26.6120    8.8410   -8.9080 C   0  0  0  0  0  0  0  0  0  0  0  0
   25.8780    9.6930   -8.0960 C   0  0  0  0  0  0  0  0  0  0  0  0
   27.3300    6.8540   -9.6250 N   0  0  0  0  0  0  0  0  0  0  0  0
   27.9320    7.8130  -10.4060 C   0  0  0  0  0  0  0  0  0  0  0  0
   27.3800    8.9840   -9.8430 C   0  0  0  0  0  0  0  0  0  0  0  0
   25.3330   10.8070   -5.5410 C   0  0  1  0  0  0  0  0  0  0  0  0
   28.8210    7.8540  -11.4540 N   0  0  0  0  0  0  0  0  0  0  0  0
   29.2040    9.0400  -11.9850 C   0  0  0  0  0  0  0  0  0  0  0  0
   30.5490    9.4720  -12.0390 N   0  0  0  0  0  0  0  0  0  0  0  0
   30.5740   10.7320  -12.6510 C   0  0  0  0  0  0  0  0  0  0  0  0
   29.1910   10.9170  -12.9020 C   0  0  0  0  0  0  0  0  0  0  0  0
   28.3790    9.9080  -12.5140 N   0  0  0  0  0  0  0  0  0  0  0  0
   26.9160    9.8520  -12.6990 C   0  0  1  0  0  0  0  0  0  0  0  0
   24.1840    7.2730   -5.9290 N   0  0  0  0  0  0  0  0  0  0  0  0
   23.3850    8.0070   -5.1410 C   0  0  0  0  0  0  0  0  0  0  0  0
   23.7510    8.3990   -3.8600 C   0  0  0  0  0  0  0  0  0  0  0  0
   22.9040    9.2020   -3.1100 N   0  0  0  0  0  0  0  0  0  0  0  0
   21.6860    9.6140   -3.6380 C   0  0  0  0  0  0  0  0  0  0  0  0
   21.3200    9.2240   -4.9200 C   0  0  0  0  0  0  0  0  0  0  0  0
   22.1770    8.4080   -5.6700 C   0  0  0  0  0  0  0  0  0  0  0  0
   20.6950   10.3920   -3.1070 N   0  0  0  0  0  0  0  0  0  0  0  0
   19.3580   10.1380   -2.5530 C   0  0  1  0  0  0  0  0  0  0  0  0
   18.2270   10.8790   -3.0630 C   0  0  1  0  0  0  0  0  0  0  0  0
   19.2380   12.1770   -3.3380 C   0  0  1  0  0  0  0  0  0  0  0  0
   20.6310   11.7660   -3.3600 C   0  0  1  0  0  0  0  0  0  0  0  0
   25.6564    5.9214   -7.5973 H   0  0  0  0  0  0  0  0  0  0  0  0
   25.9417   10.7817   -8.2401 H   0  0  0  0  0  0  0  0  0  0  0  0
   27.6322    9.9818  -10.2314 H   0  0  0  0  0  0  0  0  0  0  0  0
   25.0224   10.5679   -4.5132 H   0  0  0  0  0  0  0  0  0  0  0  0
   26.3683   10.4705   -5.6988 H   0  0  0  0  0  0  0  0  0  0  0  0
   25.2726   11.8939   -5.6988 H   0  0  0  0  0  0  0  0  0  0  0  0
   29.1987    6.9762  -11.8384 H   0  0  0  0  0  0  0  0  0  0  0  0
   31.4258   11.3913  -12.8738 H   0  0  0  0  0  0  0  0  0  0  0  0
   28.8021   11.8264  -13.3833 H   0  0  0  0  0  0  0  0  0  0  0  0
   26.4226    9.8331  -11.7161 H   0  0  0  0  0  0  0  0  0  0  0  0
   26.5831   10.7381  -13.2594 H   0  0  0  0  0  0  0  0  0  0  0  0
   26.6518    8.9431  -13.2594 H   0  0  0  0  0  0  0  0  0  0  0  0
   24.1977    6.2533   -5.7844 H   0  0  0  0  0  0  0  0  0  0  0  0
   24.7136    8.0724   -3.4395 H   0  0  0  0  0  0  0  0  0  0  0  0
   20.3607    9.5547   -5.3448 H   0  0  0  0  0  0  0  0  0  0  0  0
   21.8858    8.0873   -6.6811 H   0  0  0  0  0  0  0  0  0  0  0  0
   19.1416    9.0716   -2.7141 H   0  0  0  0  0  0  0  0  0  0  0  0
   19.4407   10.4760   -1.5095 H   0  0  0  0  0  0  0  0  0  0  0  0
   17.7794   10.4528   -3.9729 H   0  0  0  0  0  0  0  0  0  0  0  0
   17.3101   10.9930   -2.4661 H   0  0  0  0  0  0  0  0  0  0  0  0
   18.9830   12.6307   -4.3071 H   0  0  0  0  0  0  0  0  0  0  0  0
   19.1027   12.9014   -2.5213 H   0  0  0  0  0  0  0  0  0  0  0  0
   21.1906   12.3118   -2.5861 H   0  0  0  0  0  0  0  0  0  0  0  0
   21.0728   11.9881   -4.3426 H   0  0  0  0  0  0  0  0  0  0  0  0
  1  7  1  0
  1  2  2  0
  1  5  1  0
  2  3  1  0
  2 19  1  0
  3  4  1  0
  4  8  2  0
  4  6  1  0
  6 10  1  0
  6  7  2  0
  8  9  1  0
  9 12  1  0
  9 10  2  0
 12 13  1  0
 13 17  1  0
 13 14  2  0
 14 15  1  0
 15 16  2  0
 16 17  1  0
 17 18  1  0
  5 11  1  0
 19 20  1  0
 20 25  1  0
 20 21  2  0
 21 22  1  0
 22 23  2  0
 23 24  1  0
 23 26  1  0
 24 25  2  0
 26 30  1  0
 26 27  1  0
 27 28  1  0
 28 29  1  0
 29 30  1  0
  3 31  1  0
  7 32  1  0
 10 33  1  0
 11 34  1  1
 11 35  1  0
 11 36  1  0
 12 37  1  0
 15 38  1  0
 16 39  1  0
 18 40  1  1
 18 41  1  0
 18 42  1  0
 19 43  1  0
 21 44  1  0
 24 45  1  0
 25 46  1  0
 27 47  1  1
 27 48  1  0
 28 49  1  6
 28 50  1  0
 29 51  1  6
 29 52  1  0
 30 53  1  1
 30 54  1  0
M  END
>  <Pose ID>  (57)
90

>  <Score>  (57)
-7.183538913726807

>  <smiles>  (57)
COc1cc2cc(Nc3nccn3C)nc-2[nH]c1Nc1ccc(N2CCCC2)nc1

$$$$

     RDKit          3D

 43 46  0  0  0  0  0  0  0  0999 V2000
   25.2210    9.4500   -6.8510 C   0  0  0  0  0  0  0  0  0  0  0  0
   25.0790    8.0830   -6.6330 C   0  0  0  0  0  0  0  0  0  0  0  0
   25.7180    7.1750   -7.4670 N   0  0  0  0  0  0  0  0  0  0  0  0
   26.5080    7.6350   -8.5200 C   0  0  0  0  0  0  0  0  0  0  0  0
   24.7270   10.4710   -6.2070 O   0  0  0  0  0  0  0  0  0  0  0  0
   26.6520    8.9970   -8.7340 C   0  0  0  0  0  0  0  0  0  0  0  0
   26.0130    9.9060   -7.9040 C   0  0  0  0  0  0  0  0  0  0  0  0
   27.2170    6.9590   -9.4420 N   0  0  0  0  0  0  0  0  0  0  0  0
   27.8290    7.8690  -10.2760 C   0  0  0  0  0  0  0  0  0  0  0  0
   27.3740    9.0800   -9.7120 C   0  0  0  0  0  0  0  0  0  0  0  0
   25.6710   11.1010   -5.3490 C   0  0  1  0  0  0  0  0  0  0  0  0
   28.6590    7.8380  -11.3710 N   0  0  0  0  0  0  0  0  0  0  0  0
   29.0780    8.9900  -11.9450 C   0  0  0  0  0  0  0  0  0  0  0  0
   30.4430    9.3430  -12.0850 N   0  0  0  0  0  0  0  0  0  0  0  0
   30.5040   10.5870  -12.7260 C   0  0  0  0  0  0  0  0  0  0  0  0
   29.1210   10.8450  -12.9080 C   0  0  0  0  0  0  0  0  0  0  0  0
   28.2760    9.8930  -12.4540 N   0  0  0  0  0  0  0  0  0  0  0  0
   26.8040    9.9150  -12.5570 C   0  0  1  0  0  0  0  0  0  0  0  0
   26.1630   10.3250  -13.8850 C   0  0  1  0  0  0  0  0  0  0  0  0
   24.2760    7.6200   -5.5440 C   0  0  0  0  0  0  0  0  0  0  0  0
   23.6460    8.4970   -4.6700 C   0  0  0  0  0  0  0  0  0  0  0  0
   22.8510    8.0040   -3.6430 C   0  0  0  0  0  0  0  0  0  0  0  0
   22.6860    6.6320   -3.4890 C   0  0  0  0  0  0  0  0  0  0  0  0
   24.1120    6.2480   -5.3910 N   0  0  0  0  0  0  0  0  0  0  0  0
   23.3170    5.7550   -4.3630 N   0  0  0  0  0  0  0  0  0  0  0  0
   22.2330    8.8650   -2.7860 O   0  0  0  0  0  0  0  0  0  0  0  0
   25.6086    6.1632   -7.3081 H   0  0  0  0  0  0  0  0  0  0  0  0
   26.1309   10.9860   -8.0763 H   0  0  0  0  0  0  0  0  0  0  0  0
   27.6582   10.0544  -10.1360 H   0  0  0  0  0  0  0  0  0  0  0  0
   25.3941   10.9162   -4.3006 H   0  0  0  0  0  0  0  0  0  0  0  0
   26.6730   10.6899   -5.5415 H   0  0  0  0  0  0  0  0  0  0  0  0
   25.6758   12.1840   -5.5415 H   0  0  0  0  0  0  0  0  0  0  0  0
   28.9639    6.9331  -11.7570 H   0  0  0  0  0  0  0  0  0  0  0  0
   31.3776   11.1928  -13.0085 H   0  0  0  0  0  0  0  0  0  0  0  0
   28.7581   11.7649  -13.3898 H   0  0  0  0  0  0  0  0  0  0  0  0
   26.4488    8.8998  -12.3266 H   0  0  0  0  0  0  0  0  0  0  0  0
   26.5008   10.7095  -11.8593 H   0  0  0  0  0  0  0  0  0  0  0  0
   25.2514   10.9081  -13.6876 H   0  0  0  0  0  0  0  0  0  0  0  0
   26.8724   10.9374  -14.4609 H   0  0  0  0  0  0  0  0  0  0  0  0
   25.9045    9.4242  -14.4609 H   0  0  0  0  0  0  0  0  0  0  0  0
   23.7767    9.5825   -4.7912 H   0  0  0  0  0  0  0  0  0  0  0  0
   22.0565    6.2411   -2.6760 H   0  0  0  0  0  0  0  0  0  0  0  0
   21.6665    8.5135   -2.0542 H   0  0  0  0  0  0  0  0  0  0  0  0
  1  7  1  0
  1  2  2  0
  1  5  1  0
  2  3  1  0
  2 20  1  0
  3  4  1  0
  4  8  2  0
  4  6  1  0
  6 10  1  0
  6  7  2  0
  8  9  1  0
  9 12  1  0
  9 10  2  0
 12 13  1  0
 13 17  1  0
 13 14  2  0
 14 15  1  0
 15 16  2  0
 16 17  1  0
 17 18  1  0
 18 19  1  0
 20 24  1  0
 20 21  2  0
 21 22  1  0
 22 23  2  0
 22 26  1  0
 23 25  1  0
 24 25  2  0
  5 11  1  0
  3 27  1  0
  7 28  1  0
 10 29  1  0
 11 30  1  1
 11 31  1  0
 11 32  1  0
 12 33  1  0
 15 34  1  0
 16 35  1  0
 18 36  1  1
 18 37  1  0
 19 38  1  1
 19 39  1  0
 19 40  1  0
 21 41  1  0
 23 42  1  0
 26 43  1  0
M  END
>  <Pose ID>  (58)
2

>  <Score>  (58)
-7.168856620788574

>  <smiles>  (58)
CCn1ccnc1Nc1cc2cc(OC)c(-c3cc(O)cnn3)[nH]c-2n1

$$$$

     RDKit          3D

 45 48  0  0  0  0  0  0  0  0999 V2000
   25.1000    9.2570   -7.0510 C   0  0  0  0  0  0  0  0  0  0  0  0
   24.9880    7.8840   -6.8470 C   0  0  0  0  0  0  0  0  0  0  0  0
   25.6930    7.0010   -7.6500 N   0  0  0  0  0  0  0  0  0  0  0  0
   26.5180    7.4890   -8.6600 C   0  0  0  0  0  0  0  0  0  0  0  0
   24.5410   10.2580   -6.4280 O   0  0  0  0  0  0  0  0  0  0  0  0
   26.6310    8.8580   -8.8620 C   0  0  0  0  0  0  0  0  0  0  0  0
   25.9250    9.7420   -8.0600 C   0  0  0  0  0  0  0  0  0  0  0  0
   27.2920    6.8420   -9.5510 N   0  0  0  0  0  0  0  0  0  0  0  0
   27.9170    7.7720  -10.3500 C   0  0  0  0  0  0  0  0  0  0  0  0
   27.3990    8.9650   -9.8030 C   0  0  0  0  0  0  0  0  0  0  0  0
   25.4230   10.9120   -5.5220 C   0  0  1  0  0  0  0  0  0  0  0  0
   28.8010    7.7720  -11.4030 N   0  0  0  0  0  0  0  0  0  0  0  0
   29.2130    8.9390  -11.9530 C   0  0  0  0  0  0  0  0  0  0  0  0
   30.5690    9.3330  -12.0220 N   0  0  0  0  0  0  0  0  0  0  0  0
   30.6250   10.5820  -12.6540 C   0  0  0  0  0  0  0  0  0  0  0  0
   29.2460   10.8010  -12.9020 C   0  0  0  0  0  0  0  0  0  0  0  0
   28.4080    9.8190  -12.4940 N   0  0  0  0  0  0  0  0  0  0  0  0
   26.9440    9.8000  -12.6700 C   0  0  1  0  0  0  0  0  0  0  0  0
   24.1770    7.4030   -5.8480 N   0  0  0  0  0  0  0  0  0  0  0  0
   23.4030    8.1710   -5.0680 C   0  0  0  0  0  0  0  0  0  0  0  0
   23.7870    8.5720   -3.7940 C   0  0  0  0  0  0  0  0  0  0  0  0
   22.9640    9.4100   -3.0520 N   0  0  0  0  0  0  0  0  0  0  0  0
   21.7560    9.8460   -3.5830 C   0  0  0  0  0  0  0  0  0  0  0  0
   21.3720    9.4450   -4.8560 C   0  0  0  0  0  0  0  0  0  0  0  0
   22.2030    8.5960   -5.5970 C   0  0  0  0  0  0  0  0  0  0  0  0
   20.8620   10.7560   -2.7770 C   0  0  1  0  0  0  0  0  0  0  0  0
   25.6067    5.9857   -7.4998 H   0  0  0  0  0  0  0  0  0  0  0  0
   26.0175   10.8261   -8.2218 H   0  0  0  0  0  0  0  0  0  0  0  0
   27.6761    9.9494  -10.2081 H   0  0  0  0  0  0  0  0  0  0  0  0
   25.1200   10.6873   -4.4887 H   0  0  0  0  0  0  0  0  0  0  0  0
   26.4502   10.5556   -5.6886 H   0  0  0  0  0  0  0  0  0  0  0  0
   25.3803   11.9985   -5.6886 H   0  0  0  0  0  0  0  0  0  0  0  0
   29.1523    6.8785  -11.7761 H   0  0  0  0  0  0  0  0  0  0  0  0
   31.4934   11.2143  -12.8910 H   0  0  0  0  0  0  0  0  0  0  0  0
   28.8796   11.7131  -13.3957 H   0  0  0  0  0  0  0  0  0  0  0  0
   26.4562    9.7937  -11.6841 H   0  0  0  0  0  0  0  0  0  0  0  0
   26.6302   10.6941  -13.2286 H   0  0  0  0  0  0  0  0  0  0  0  0
   26.6535    8.8980  -13.2286 H   0  0  0  0  0  0  0  0  0  0  0  0
   24.1626    6.3856   -5.6877 H   0  0  0  0  0  0  0  0  0  0  0  0
   24.7425    8.2259   -3.3731 H   0  0  0  0  0  0  0  0  0  0  0  0
   20.4187    9.7930   -5.2805 H   0  0  0  0  0  0  0  0  0  0  0  0
   21.8982    8.2680   -6.6017 H   0  0  0  0  0  0  0  0  0  0  0  0
   21.0330   10.5820   -1.7044 H   0  0  0  0  0  0  0  0  0  0  0  0
   21.0913   11.8041   -3.0195 H   0  0  0  0  0  0  0  0  0  0  0  0
   19.8100   10.5453   -3.0195 H   0  0  0  0  0  0  0  0  0  0  0  0
  1  7  1  0
  1  2  2  0
  1  5  1  0
  2  3  1  0
  2 19  1  0
  3  4  1  0
  4  8  2  0
  4  6  1  0
  6 10  1  0
  6  7  2  0
  8  9  1  0
  9 12  1  0
  9 10  2  0
 12 13  1  0
 13 17  1  0
 13 14  2  0
 14 15  1  0
 15 16  2  0
 16 17  1  0
 17 18  1  0
  5 11  1  0
 19 20  1  0
 20 25  1  0
 20 21  2  0
 21 22  1  0
 22 23  2  0
 23 24  1  0
 23 26  1  0
 24 25  2  0
  3 27  1  0
  7 28  1  0
 10 29  1  0
 11 30  1  1
 11 31  1  0
 11 32  1  0
 12 33  1  0
 15 34  1  0
 16 35  1  0
 18 36  1  1
 18 37  1  0
 18 38  1  0
 19 39  1  0
 21 40  1  0
 24 41  1  0
 25 42  1  0
 26 43  1  1
 26 44  1  0
 26 45  1  0
M  END
>  <Pose ID>  (59)
89

>  <Score>  (59)
-7.129262924194336

>  <smiles>  (59)
COc1cc2cc(Nc3nccn3C)nc-2[nH]c1Nc1ccc(C)nc1

$$$$

     RDKit          3D

 41 44  0  0  0  0  0  0  0  0999 V2000
   25.1920    9.3760   -6.8080 C   0  0  0  0  0  0  0  0  0  0  0  0
   24.9840    8.0130   -6.6060 C   0  0  0  0  0  0  0  0  0  0  0  0
   25.5920    7.0870   -7.4410 N   0  0  0  0  0  0  0  0  0  0  0  0
   26.4120    7.5220   -8.4810 C   0  0  0  0  0  0  0  0  0  0  0  0
   24.7340   10.4100   -6.1560 O   0  0  0  0  0  0  0  0  0  0  0  0
   26.6200    8.8780   -8.6780 C   0  0  0  0  0  0  0  0  0  0  0  0
   26.0110    9.8050   -7.8460 C   0  0  0  0  0  0  0  0  0  0  0  0
   27.0990    6.8240   -9.4030 N   0  0  0  0  0  0  0  0  0  0  0  0
   27.7620    7.7120  -10.2200 C   0  0  0  0  0  0  0  0  0  0  0  0
   27.3560    8.9370   -9.6480 C   0  0  0  0  0  0  0  0  0  0  0  0
   25.6960   10.9880   -5.2840 C   0  0  1  0  0  0  0  0  0  0  0  0
   28.6010    7.6550  -11.3070 N   0  0  0  0  0  0  0  0  0  0  0  0
   29.0790    8.7930  -11.8640 C   0  0  0  0  0  0  0  0  0  0  0  0
   30.4590    9.0850  -11.9850 N   0  0  0  0  0  0  0  0  0  0  0  0
   30.5830   10.3330  -12.6140 C   0  0  0  0  0  0  0  0  0  0  0  0
   29.2150   10.6540  -12.8060 C   0  0  0  0  0  0  0  0  0  0  0  0
   28.3220    9.7360  -12.3720 N   0  0  0  0  0  0  0  0  0  0  0  0
   26.8550    9.8250  -12.4900 C   0  0  1  0  0  0  0  0  0  0  0  0
   24.2000    7.3790   -5.6500 C   0  0  0  0  0  0  0  0  0  0  0  0
   22.8660    7.7600   -5.5570 C   0  0  0  0  0  0  0  0  0  0  0  0
   24.7220    6.4510   -4.7550 C   0  0  0  0  0  0  0  0  0  0  0  0
   22.0550    7.2110   -4.5720 N   0  0  0  0  0  0  0  0  0  0  0  0
   22.5770    6.2840   -3.6780 C   0  0  0  0  0  0  0  0  0  0  0  0
   23.8900    5.9220   -3.7150 C   0  0  0  0  0  0  0  0  0  0  0  0
   22.3990    8.5920   -6.3560 O   0  0  0  0  0  0  0  0  0  0  0  0
   25.4378    6.0795   -7.2928 H   0  0  0  0  0  0  0  0  0  0  0  0
   26.1760   10.8805   -8.0074 H   0  0  0  0  0  0  0  0  0  0  0  0
   27.6888    9.9015  -10.0591 H   0  0  0  0  0  0  0  0  0  0  0  0
   25.3988   10.8094   -4.2401 H   0  0  0  0  0  0  0  0  0  0  0  0
   26.6795   10.5311   -5.4685 H   0  0  0  0  0  0  0  0  0  0  0  0
   25.7543   12.0708   -5.4685 H   0  0  0  0  0  0  0  0  0  0  0  0
   28.8678    6.7412  -11.7004 H   0  0  0  0  0  0  0  0  0  0  0  0
   31.4857   10.9015  -12.8823 H   0  0  0  0  0  0  0  0  0  0  0  0
   28.8988   11.5948  -13.2803 H   0  0  0  0  0  0  0  0  0  0  0  0
   26.4073    9.8522  -11.4856 H   0  0  0  0  0  0  0  0  0  0  0  0
   26.5860   10.7411  -13.0362 H   0  0  0  0  0  0  0  0  0  0  0  0
   26.4772    8.9481  -13.0362 H   0  0  0  0  0  0  0  0  0  0  0  0
   25.7686    6.1247   -4.8451 H   0  0  0  0  0  0  0  0  0  0  0  0
   21.0662    7.4912   -4.5042 H   0  0  0  0  0  0  0  0  0  0  0  0
   21.9156    5.8325   -2.9239 H   0  0  0  0  0  0  0  0  0  0  0  0
   24.3037    5.2365   -2.9607 H   0  0  0  0  0  0  0  0  0  0  0  0
  1  7  1  0
  1  2  2  0
  1  5  1  0
  2  3  1  0
  2 19  1  0
  3  4  1  0
  4  8  2  0
  4  6  1  0
  6 10  1  0
  6  7  2  0
  8  9  1  0
  9 12  1  0
  9 10  2  0
 12 13  1  0
 13 17  1  0
 13 14  2  0
 14 15  1  0
 15 16  2  0
 16 17  1  0
 17 18  1  0
 19 20  1  0
 19 21  2  0
 20 25  2  0
 20 22  1  0
 21 24  1  0
 22 23  1  0
 23 24  2  0
  5 11  1  0
  3 26  1  0
  7 27  1  0
 10 28  1  0
 11 29  1  1
 11 30  1  0
 11 31  1  0
 12 32  1  0
 15 33  1  0
 16 34  1  0
 18 35  1  1
 18 36  1  0
 18 37  1  0
 21 38  1  0
 22 39  1  0
 23 40  1  0
 24 41  1  0
M  END
>  <Pose ID>  (60)
50

>  <Score>  (60)
-7.106826305389404

>  <smiles>  (60)
COc1cc2cc(Nc3nccn3C)nc-2[nH]c1-c1ccc[nH]c1=O

$$$$

     RDKit          3D

 51 54  0  0  0  0  0  0  0  0999 V2000
   25.0440    9.2680   -6.4280 C   0  0  0  0  0  0  0  0  0  0  0  0
   25.0510    7.9070   -6.1300 C   0  0  0  0  0  0  0  0  0  0  0  0
   25.7270    7.0170   -6.9540 N   0  0  0  0  0  0  0  0  0  0  0  0
   26.4020    7.4900   -8.0790 C   0  0  0  0  0  0  0  0  0  0  0  0
   24.4890   10.2720   -5.8070 O   0  0  0  0  0  0  0  0  0  0  0  0
   26.3960    8.8450   -8.3730 C   0  0  0  0  0  0  0  0  0  0  0  0
   25.7210    9.7340   -7.5510 C   0  0  0  0  0  0  0  0  0  0  0  0
   27.1170    6.8310   -9.0090 N   0  0  0  0  0  0  0  0  0  0  0  0
   27.5850    7.7460   -9.9280 C   0  0  0  0  0  0  0  0  0  0  0  0
   27.0480    8.9360   -9.4000 C   0  0  0  0  0  0  0  0  0  0  0  0
   25.4150   11.0380   -5.0470 C   0  0  1  0  0  0  0  0  0  0  0  0
   28.3480    7.7280  -11.0720 N   0  0  0  0  0  0  0  0  0  0  0  0
   28.6140    8.8820  -11.7330 C   0  0  0  0  0  0  0  0  0  0  0  0
   29.9270    9.3550  -11.9780 N   0  0  0  0  0  0  0  0  0  0  0  0
   29.8250   10.5570  -12.6870 C   0  0  0  0  0  0  0  0  0  0  0  0
   28.4160   10.6720  -12.7900 C   0  0  0  0  0  0  0  0  0  0  0  0
   27.6970    9.6710  -12.2320 N   0  0  0  0  0  0  0  0  0  0  0  0
   26.2290    9.5460  -12.2420 C   0  0  1  0  0  0  0  0  0  0  0  0
   24.3230    7.3990   -4.9110 C   0  0  1  0  0  0  0  0  0  0  0  0
   22.8360    7.1750   -5.1730 C   0  0  0  0  0  0  0  0  0  0  0  0
   22.4880    6.5350   -6.1360 O   0  0  0  0  0  0  0  0  0  0  0  0
   21.9090    7.7000   -4.2780 N   0  0  0  0  0  0  0  0  0  0  0  0
   20.9710    8.6100   -4.7130 C   0  0  0  0  0  0  0  0  0  0  0  0
   21.9350    7.3460   -2.8660 C   0  0  1  0  0  0  0  0  0  0  0  0
   22.5380    8.4140   -2.0050 C   0  0  0  0  0  0  0  0  0  0  0  0
   20.0780    9.1710   -3.7800 C   0  0  1  0  0  0  0  0  0  0  0  0
   20.6520    9.9050   -2.5250 C   0  0  1  0  0  0  0  0  0  0  0  0
   21.6750    9.3050   -1.7420 N   0  0  0  0  0  0  0  0  0  0  0  0
   20.7590    8.9820   -5.8530 O   0  0  0  0  0  0  0  0  0  0  0  0
   23.7230    8.3880   -1.6260 O   0  0  0  0  0  0  0  0  0  0  0  0
   25.7299    6.0105   -6.7350 H   0  0  0  0  0  0  0  0  0  0  0  0
   25.7205   10.8085   -7.7865 H   0  0  0  0  0  0  0  0  0  0  0  0
   27.2096    9.9062   -9.8926 H   0  0  0  0  0  0  0  0  0  0  0  0
   25.2267   10.8822   -3.9745 H   0  0  0  0  0  0  0  0  0  0  0  0
   26.4398   10.7201   -5.2893 H   0  0  0  0  0  0  0  0  0  0  0  0
   25.2949   12.1042   -5.2893 H   0  0  0  0  0  0  0  0  0  0  0  0
   28.7186    6.8353  -11.4279 H   0  0  0  0  0  0  0  0  0  0  0  0
   30.6157   11.2248  -13.0596 H   0  0  0  0  0  0  0  0  0  0  0  0
   27.9359   11.5241  -13.2935 H   0  0  0  0  0  0  0  0  0  0  0  0
   25.8567    9.5143  -11.2074 H   0  0  0  0  0  0  0  0  0  0  0  0
   25.7910   10.4101  -12.7630 H   0  0  0  0  0  0  0  0  0  0  0  0
   25.9434    8.6203  -12.7630 H   0  0  0  0  0  0  0  0  0  0  0  0
   24.7749    6.4450   -4.6016 H   0  0  0  0  0  0  0  0  0  0  0  0
   24.4138    8.1619   -4.1238 H   0  0  0  0  0  0  0  0  0  0  0  0
   20.9028    7.1667   -2.5306 H   0  0  0  0  0  0  0  0  0  0  0  0
   22.5622    6.4481   -2.7637 H   0  0  0  0  0  0  0  0  0  0  0  0
   19.4596    9.8999   -4.3244 H   0  0  0  0  0  0  0  0  0  0  0  0
   19.5561    8.2991   -3.3587 H   0  0  0  0  0  0  0  0  0  0  0  0
   21.0496   10.8680   -2.8779 H   0  0  0  0  0  0  0  0  0  0  0  0
   19.7941    9.9246   -1.8368 H   0  0  0  0  0  0  0  0  0  0  0  0
   21.7249    9.6619   -0.7771 H   0  0  0  0  0  0  0  0  0  0  0  0
  1  7  1  0
  1  2  2  0
  1  5  1  0
  2  3  1  0
  2 19  1  0
  3  4  1  0
  4  8  2  0
  4  6  1  0
  6 10  1  0
  6  7  2  0
  8  9  1  0
  9 12  1  0
  9 10  2  0
 12 13  1  0
 13 17  1  0
 13 14  2  0
 14 15  1  0
 15 16  2  0
 16 17  1  0
 17 18  1  0
  5 11  1  0
 19 20  1  0
 20 21  2  0
 20 22  1  0
 22 23  1  0
 22 24  1  0
 23 29  2  0
 23 26  1  0
 24 25  1  0
 25 28  1  0
 25 30  2  0
 26 27  1  0
 27 28  1  0
  3 31  1  0
  7 32  1  0
 10 33  1  0
 11 34  1  1
 11 35  1  0
 11 36  1  0
 12 37  1  0
 15 38  1  0
 16 39  1  0
 18 40  1  1
 18 41  1  0
 18 42  1  0
 19 43  1  1
 19 44  1  0
 24 45  1  1
 24 46  1  0
 26 47  1  6
 26 48  1  0
 27 49  1  6
 27 50  1  0
 28 51  1  0
M  END
>  <Pose ID>  (61)
136

>  <Score>  (61)
-7.106677055358887

>  <smiles>  (61)
COc1cc2cc(Nc3nccn3C)nc-2[nH]c1CC(=O)N1CC(=O)NCCC1=O

$$$$

     RDKit          3D

 41 44  0  0  0  0  0  0  0  0999 V2000
   25.1490    9.4470   -6.8170 C   0  0  0  0  0  0  0  0  0  0  0  0
   24.9740    8.0870   -6.5690 C   0  0  0  0  0  0  0  0  0  0  0  0
   25.6040    7.1470   -7.3710 N   0  0  0  0  0  0  0  0  0  0  0  0
   26.4160    7.5620   -8.4230 C   0  0  0  0  0  0  0  0  0  0  0  0
   24.6680   10.4920   -6.2030 O   0  0  0  0  0  0  0  0  0  0  0  0
   26.5950    8.9150   -8.6680 C   0  0  0  0  0  0  0  0  0  0  0  0
   25.9640    9.8590   -7.8670 C   0  0  0  0  0  0  0  0  0  0  0  0
   27.1220    6.8510   -9.3210 N   0  0  0  0  0  0  0  0  0  0  0  0
   27.7670    7.7260  -10.1670 C   0  0  0  0  0  0  0  0  0  0  0  0
   27.3320    8.9590   -9.6370 C   0  0  0  0  0  0  0  0  0  0  0  0
   25.6160   11.1200   -5.3490 C   0  0  1  0  0  0  0  0  0  0  0  0
   28.6110    7.6490  -11.2490 N   0  0  0  0  0  0  0  0  0  0  0  0
   29.0640    8.7780  -11.8440 C   0  0  0  0  0  0  0  0  0  0  0  0
   30.4360    9.0970  -11.9730 N   0  0  0  0  0  0  0  0  0  0  0  0
   30.5330   10.3240  -12.6430 C   0  0  0  0  0  0  0  0  0  0  0  0
   29.1600   10.6080  -12.8490 C   0  0  0  0  0  0  0  0  0  0  0  0
   28.2880    9.6840  -12.3850 N   0  0  0  0  0  0  0  0  0  0  0  0
   26.8180    9.7390  -12.5090 C   0  0  1  0  0  0  0  0  0  0  0  0
   24.1950    7.6740   -5.5650 C   0  0  0  0  0  0  0  0  0  0  0  0
   24.2310    6.2850   -5.5460 N   0  0  0  0  0  0  0  0  0  0  0  0
   23.5870    8.3670   -4.5240 C   0  0  0  0  0  0  0  0  0  0  0  0
   23.0170    7.6720   -3.4650 C   0  0  0  0  0  0  0  0  0  0  0  0
   23.0530    6.2830   -3.4470 C   0  0  0  0  0  0  0  0  0  0  0  0
   23.6750    5.6090   -4.4050 C   0  0  0  0  0  0  0  0  0  0  0  0
   22.4230    8.3520   -2.4430 O   0  0  0  0  0  0  0  0  0  0  0  0
   25.4711    6.1421   -7.1883 H   0  0  0  0  0  0  0  0  0  0  0  0
   26.1087   10.9317   -8.0629 H   0  0  0  0  0  0  0  0  0  0  0  0
   27.6442    9.9168  -10.0788 H   0  0  0  0  0  0  0  0  0  0  0  0
   25.3412   10.9380   -4.2995 H   0  0  0  0  0  0  0  0  0  0  0  0
   26.6160   10.7051   -5.5434 H   0  0  0  0  0  0  0  0  0  0  0  0
   25.6240   12.2026   -5.5434 H   0  0  0  0  0  0  0  0  0  0  0  0
   28.9003    6.7283  -11.6090 H   0  0  0  0  0  0  0  0  0  0  0  0
   31.4235   10.9032  -12.9284 H   0  0  0  0  0  0  0  0  0  0  0  0
   28.8237   11.5246  -13.3557 H   0  0  0  0  0  0  0  0  0  0  0  0
   26.3658    9.7559  -11.5064 H   0  0  0  0  0  0  0  0  0  0  0  0
   26.5300   10.6485  -13.0565 H   0  0  0  0  0  0  0  0  0  0  0  0
   26.4628    8.8535  -13.0565 H   0  0  0  0  0  0  0  0  0  0  0  0
   23.5574    9.4665   -4.5392 H   0  0  0  0  0  0  0  0  0  0  0  0
   22.5603    5.7366   -2.6293 H   0  0  0  0  0  0  0  0  0  0  0  0
   23.7670    4.5157   -4.3256 H   0  0  0  0  0  0  0  0  0  0  0  0
   22.0169    7.8561   -1.6885 H   0  0  0  0  0  0  0  0  0  0  0  0
  1  7  1  0
  1  2  2  0
  1  5  1  0
  2  3  1  0
  2 19  1  0
  3  4  1  0
  4  8  2  0
  4  6  1  0
  6 10  1  0
  6  7  2  0
  8  9  1  0
  9 12  1  0
  9 10  2  0
 12 13  1  0
 13 17  1  0
 13 14  2  0
 14 15  1  0
 15 16  2  0
 16 17  1  0
 17 18  1  0
 19 20  2  0
 19 21  1  0
 20 24  1  0
 21 22  2  0
 22 23  1  0
 22 25  1  0
 23 24  2  0
  5 11  1  0
  3 26  1  0
  7 27  1  0
 10 28  1  0
 11 29  1  1
 11 30  1  0
 11 31  1  0
 12 32  1  0
 15 33  1  0
 16 34  1  0
 18 35  1  1
 18 36  1  0
 18 37  1  0
 21 38  1  0
 23 39  1  0
 24 40  1  0
 25 41  1  0
M  END
>  <Pose ID>  (62)
32

>  <Score>  (62)
-7.105067729949951

>  <smiles>  (62)
COc1cc2cc(Nc3nccn3C)nc-2[nH]c1-c1cc(O)ccn1

$$$$

     RDKit          3D

 47 50  0  0  0  0  0  0  0  0999 V2000
   25.1520    9.3200   -6.8860 C   0  0  0  0  0  0  0  0  0  0  0  0
   25.0170    7.9500   -6.6710 C   0  0  0  0  0  0  0  0  0  0  0  0
   25.6770    7.0490   -7.4930 N   0  0  0  0  0  0  0  0  0  0  0  0
   26.4790    7.5150   -8.5330 C   0  0  0  0  0  0  0  0  0  0  0  0
   24.6370   10.3360   -6.2500 O   0  0  0  0  0  0  0  0  0  0  0  0
   26.6160    8.8800   -8.7450 C   0  0  0  0  0  0  0  0  0  0  0  0
   25.9550    9.7830   -7.9240 C   0  0  0  0  0  0  0  0  0  0  0  0
   27.2080    6.8460   -9.4460 N   0  0  0  0  0  0  0  0  0  0  0  0
   27.8280    7.7600  -10.2690 C   0  0  0  0  0  0  0  0  0  0  0  0
   27.3530    8.9660   -9.7110 C   0  0  0  0  0  0  0  0  0  0  0  0
   25.5630   10.9730   -5.3760 C   0  0  1  0  0  0  0  0  0  0  0  0
   28.6760    7.7340  -11.3500 N   0  0  0  0  0  0  0  0  0  0  0  0
   29.0950    8.8910  -11.9170 C   0  0  0  0  0  0  0  0  0  0  0  0
   30.4600    9.2560  -12.0320 N   0  0  0  0  0  0  0  0  0  0  0  0
   30.5200   10.5010  -12.6730 C   0  0  0  0  0  0  0  0  0  0  0  0
   29.1380   10.7460  -12.8780 C   0  0  0  0  0  0  0  0  0  0  0  0
   28.2950    9.7870  -12.4370 N   0  0  0  0  0  0  0  0  0  0  0  0
   26.8250    9.7980  -12.5640 C   0  0  1  0  0  0  0  0  0  0  0  0
   24.1650    7.4550   -5.5610 C   0  0  0  0  0  0  0  0  0  0  0  0
   23.6500    6.3400   -5.5920 O   0  0  0  0  0  0  0  0  0  0  0  0
   23.8810    8.2660   -4.4010 N   0  0  0  0  0  0  0  0  0  0  0  0
   23.2990    7.8210   -3.2740 C   0  0  0  0  0  0  0  0  0  0  0  0
   22.3180    8.6080   -2.6850 N   0  0  0  0  0  0  0  0  0  0  0  0
   21.6900    8.1830   -1.5200 C   0  0  0  0  0  0  0  0  0  0  0  0
   22.0440    6.9690   -0.9460 C   0  0  0  0  0  0  0  0  0  0  0  0
   23.0250    6.1800   -1.5350 C   0  0  0  0  0  0  0  0  0  0  0  0
   23.6300    6.5940   -2.7160 C   0  0  0  0  0  0  0  0  0  0  0  0
   23.4330    4.8760   -0.8930 C   0  0  1  0  0  0  0  0  0  0  0  0
   25.5745    6.0364   -7.3350 H   0  0  0  0  0  0  0  0  0  0  0  0
   26.0658   10.8642   -8.0937 H   0  0  0  0  0  0  0  0  0  0  0  0
   27.6363    9.9425  -10.1307 H   0  0  0  0  0  0  0  0  0  0  0  0
   25.2770   10.7762   -4.3322 H   0  0  0  0  0  0  0  0  0  0  0  0
   26.5728   10.5775   -5.5603 H   0  0  0  0  0  0  0  0  0  0  0  0
   25.5547   12.0574   -5.5603 H   0  0  0  0  0  0  0  0  0  0  0  0
   28.9943    6.8314  -11.7307 H   0  0  0  0  0  0  0  0  0  0  0  0
   31.3925   11.1148  -12.9413 H   0  0  0  0  0  0  0  0  0  0  0  0
   28.7745   11.6620  -13.3668 H   0  0  0  0  0  0  0  0  0  0  0  0
   26.3704    9.8014  -11.5623 H   0  0  0  0  0  0  0  0  0  0  0  0
   26.5111   10.6985  -13.1122 H   0  0  0  0  0  0  0  0  0  0  0  0
   26.4976    8.9023  -13.1122 H   0  0  0  0  0  0  0  0  0  0  0  0
   24.1443    9.2610   -4.4399 H   0  0  0  0  0  0  0  0  0  0  0  0
   20.9138    8.8074   -1.0534 H   0  0  0  0  0  0  0  0  0  0  0  0
   21.5475    6.6315   -0.0243 H   0  0  0  0  0  0  0  0  0  0  0  0
   24.3719    5.9485   -3.2089 H   0  0  0  0  0  0  0  0  0  0  0  0
   23.4004    4.9802    0.2016 H   0  0  0  0  0  0  0  0  0  0  0  0
   22.7408    4.0806   -1.2064 H   0  0  0  0  0  0  0  0  0  0  0  0
   24.4551    4.6170   -1.2064 H   0  0  0  0  0  0  0  0  0  0  0  0
  1  7  1  0
  1  2  2  0
  1  5  1  0
  2  3  1  0
  2 19  1  0
  3  4  1  0
  4  8  2  0
  4  6  1  0
  6 10  1  0
  6  7  2  0
  8  9  1  0
  9 12  1  0
  9 10  2  0
 19 20  2  0
 19 21  1  0
 21 22  1  0
 22 27  1  0
 22 23  2  0
 23 24  1  0
 24 25  2  0
 25 26  1  0
 26 27  2  0
 26 28  1  0
 12 13  1  0
 13 17  1  0
 13 14  2  0
 14 15  1  0
 15 16  2  0
 16 17  1  0
 17 18  1  0
  5 11  1  0
  3 29  1  0
  7 30  1  0
 10 31  1  0
 11 32  1  1
 11 33  1  0
 11 34  1  0
 12 35  1  0
 15 36  1  0
 16 37  1  0
 18 38  1  1
 18 39  1  0
 18 40  1  0
 21 41  1  0
 24 42  1  0
 25 43  1  0
 27 44  1  0
 28 45  1  1
 28 46  1  0
 28 47  1  0
M  END
>  <Pose ID>  (63)
70

>  <Score>  (63)
-7.096041679382324

>  <smiles>  (63)
COc1cc2cc(Nc3nccn3C)nc-2[nH]c1C(=O)Nc1cc(C)ccn1

$$$$

     RDKit          3D

 45 48  0  0  0  0  0  0  0  0999 V2000
   25.1740    9.3730   -6.8790 C   0  0  0  0  0  0  0  0  0  0  0  0
   25.0050    8.0080   -6.6670 C   0  0  0  0  0  0  0  0  0  0  0  0
   25.6470    7.0910   -7.4910 N   0  0  0  0  0  0  0  0  0  0  0  0
   26.4590    7.5390   -8.5290 C   0  0  0  0  0  0  0  0  0  0  0  0
   24.6840   10.3980   -6.2440 O   0  0  0  0  0  0  0  0  0  0  0  0
   26.6290    8.9000   -8.7410 C   0  0  0  0  0  0  0  0  0  0  0  0
   25.9870    9.8180   -7.9180 C   0  0  0  0  0  0  0  0  0  0  0  0
   27.1730    6.8560   -9.4410 N   0  0  0  0  0  0  0  0  0  0  0  0
   27.8140    7.7540  -10.2650 C   0  0  0  0  0  0  0  0  0  0  0  0
   27.3690    8.9710   -9.7040 C   0  0  0  0  0  0  0  0  0  0  0  0
   25.6220   11.0140   -5.3700 C   0  0  1  0  0  0  0  0  0  0  0  0
   28.6630    7.7100  -11.3440 N   0  0  0  0  0  0  0  0  0  0  0  0
   29.1080    8.8580  -11.9100 C   0  0  0  0  0  0  0  0  0  0  0  0
   30.4800    9.1900  -12.0250 N   0  0  0  0  0  0  0  0  0  0  0  0
   30.5710   10.4340  -12.6650 C   0  0  0  0  0  0  0  0  0  0  0  0
   29.1960   10.7120  -12.8680 C   0  0  0  0  0  0  0  0  0  0  0  0
   28.3280    9.7730  -12.4300 N   0  0  0  0  0  0  0  0  0  0  0  0
   26.8590    9.8170  -12.5580 C   0  0  1  0  0  0  0  0  0  0  0  0
   24.1730    7.8210   -5.5990 N   0  0  0  0  0  0  0  0  0  0  0  0
   24.2190    6.7520   -4.7460 C   0  0  0  0  0  0  0  0  0  0  0  0
   23.2700    6.9850   -3.8440 C   0  0  0  0  0  0  0  0  0  0  0  0
   23.1910    8.6540   -5.1640 C   0  0  0  0  0  0  0  0  0  0  0  0
   22.5700    8.1970   -4.1250 N   0  0  0  0  0  0  0  0  0  0  0  0
   22.9720    6.0810   -2.6730 C   0  0  1  0  0  0  0  0  0  0  0  0
   22.1370    4.9410   -3.2480 C   0  0  0  0  0  0  0  0  0  0  0  0
   21.9670    3.9780   -2.3630 O   0  0  0  0  0  0  0  0  0  0  0  0
   21.4650    4.9790   -4.3480 N   0  0  0  0  0  0  0  0  0  0  0  0
   25.5220    6.0808   -7.3336 H   0  0  0  0  0  0  0  0  0  0  0  0
   26.1213   10.8965   -8.0877 H   0  0  0  0  0  0  0  0  0  0  0  0
   27.6781    9.9414  -10.1198 H   0  0  0  0  0  0  0  0  0  0  0  0
   25.3311   10.8230   -4.3265 H   0  0  0  0  0  0  0  0  0  0  0  0
   26.6231   10.5970   -5.5538 H   0  0  0  0  0  0  0  0  0  0  0  0
   25.6371   12.0984   -5.5538 H   0  0  0  0  0  0  0  0  0  0  0  0
   28.9625    6.8009  -11.7243 H   0  0  0  0  0  0  0  0  0  0  0  0
   31.4581   11.0264  -12.9335 H   0  0  0  0  0  0  0  0  0  0  0  0
   28.8551   11.6382  -13.3538 H   0  0  0  0  0  0  0  0  0  0  0  0
   26.4039    9.8306  -11.5566 H   0  0  0  0  0  0  0  0  0  0  0  0
   26.5657   10.7243  -13.1064 H   0  0  0  0  0  0  0  0  0  0  0  0
   26.5120    8.9288  -13.1064 H   0  0  0  0  0  0  0  0  0  0  0  0
   24.8955    5.8861   -4.7957 H   0  0  0  0  0  0  0  0  0  0  0  0
   22.9500    9.6140   -5.6440 H   0  0  0  0  0  0  0  0  0  0  0  0
   23.9051    5.6938   -2.2377 H   0  0  0  0  0  0  0  0  0  0  0  0
   22.4425    6.6124   -1.8685 H   0  0  0  0  0  0  0  0  0  0  0  0
   20.9298    4.1536   -4.6533 H   0  0  0  0  0  0  0  0  0  0  0  0
   21.4634    5.8347   -4.9212 H   0  0  0  0  0  0  0  0  0  0  0  0
  1  7  1  0
  1  2  2  0
  1  5  1  0
  2  3  1  0
  2 19  1  0
  3  4  1  0
  4  8  2  0
  4  6  1  0
  6 10  1  0
  6  7  2  0
  8  9  1  0
  9 12  1  0
  9 10  2  0
 12 13  1  0
 13 17  1  0
 13 14  2  0
 14 15  1  0
 15 16  2  0
 16 17  1  0
 17 18  1  0
 19 22  1  0
 19 20  1  0
 20 21  2  0
 21 23  1  0
 21 24  1  0
 22 23  2  0
 24 25  1  0
 25 27  1  0
 25 26  2  0
  5 11  1  0
  3 28  1  0
  7 29  1  0
 10 30  1  0
 11 31  1  1
 11 32  1  0
 11 33  1  0
 12 34  1  0
 15 35  1  0
 16 36  1  0
 18 37  1  1
 18 38  1  0
 18 39  1  0
 20 40  1  0
 22 41  1  0
 24 42  1  1
 24 43  1  0
 27 44  1  0
 27 45  1  0
M  END
>  <Pose ID>  (64)
125

>  <Score>  (64)
-7.083313465118408

>  <smiles>  (64)
COc1cc2cc(Nc3nccn3C)nc-2[nH]c1-n1cnc(CC(N)=O)c1

$$$$

     RDKit          3D

 48 51  0  0  0  0  0  0  0  0999 V2000
   25.1520    9.3200   -6.8860 C   0  0  0  0  0  0  0  0  0  0  0  0
   25.0170    7.9500   -6.6710 C   0  0  0  0  0  0  0  0  0  0  0  0
   25.6770    7.0490   -7.4930 N   0  0  0  0  0  0  0  0  0  0  0  0
   26.4790    7.5150   -8.5330 C   0  0  0  0  0  0  0  0  0  0  0  0
   24.6370   10.3360   -6.2500 O   0  0  0  0  0  0  0  0  0  0  0  0
   26.6160    8.8800   -8.7450 C   0  0  0  0  0  0  0  0  0  0  0  0
   25.9550    9.7830   -7.9240 C   0  0  0  0  0  0  0  0  0  0  0  0
   27.2080    6.8460   -9.4460 N   0  0  0  0  0  0  0  0  0  0  0  0
   27.8280    7.7600  -10.2690 C   0  0  0  0  0  0  0  0  0  0  0  0
   27.3530    8.9660   -9.7110 C   0  0  0  0  0  0  0  0  0  0  0  0
   25.5630   10.9730   -5.3760 C   0  0  1  0  0  0  0  0  0  0  0  0
   28.6760    7.7340  -11.3500 N   0  0  0  0  0  0  0  0  0  0  0  0
   29.0950    8.8910  -11.9170 C   0  0  0  0  0  0  0  0  0  0  0  0
   30.4600    9.2560  -12.0320 N   0  0  0  0  0  0  0  0  0  0  0  0
   30.5200   10.5010  -12.6730 C   0  0  0  0  0  0  0  0  0  0  0  0
   29.1380   10.7460  -12.8780 C   0  0  0  0  0  0  0  0  0  0  0  0
   28.2950    9.7870  -12.4370 N   0  0  0  0  0  0  0  0  0  0  0  0
   26.8250    9.7980  -12.5640 C   0  0  1  0  0  0  0  0  0  0  0  0
   24.1650    7.4550   -5.5610 C   0  0  0  0  0  0  0  0  0  0  0  0
   23.6500    6.3400   -5.5920 O   0  0  0  0  0  0  0  0  0  0  0  0
   23.8810    8.2660   -4.4010 N   0  0  0  0  0  0  0  0  0  0  0  0
   23.2990    7.8210   -3.2740 C   0  0  0  0  0  0  0  0  0  0  0  0
   22.3180    8.6080   -2.6850 N   0  0  0  0  0  0  0  0  0  0  0  0
   21.6900    8.1830   -1.5200 C   0  0  0  0  0  0  0  0  0  0  0  0
   22.0440    6.9690   -0.9460 C   0  0  0  0  0  0  0  0  0  0  0  0
   23.0250    6.1800   -1.5350 C   0  0  0  0  0  0  0  0  0  0  0  0
   23.6300    6.5940   -2.7160 C   0  0  0  0  0  0  0  0  0  0  0  0
   23.4330    4.8760   -0.8930 C   0  0  1  0  0  0  0  0  0  0  0  0
   22.6680    3.6800   -1.3680 O   0  0  0  0  0  0  0  0  0  0  0  0
   25.5745    6.0364   -7.3350 H   0  0  0  0  0  0  0  0  0  0  0  0
   26.0658   10.8642   -8.0937 H   0  0  0  0  0  0  0  0  0  0  0  0
   27.6363    9.9425  -10.1307 H   0  0  0  0  0  0  0  0  0  0  0  0
   25.2770   10.7762   -4.3322 H   0  0  0  0  0  0  0  0  0  0  0  0
   26.5728   10.5775   -5.5603 H   0  0  0  0  0  0  0  0  0  0  0  0
   25.5547   12.0574   -5.5603 H   0  0  0  0  0  0  0  0  0  0  0  0
   28.9943    6.8314  -11.7307 H   0  0  0  0  0  0  0  0  0  0  0  0
   31.3925   11.1148  -12.9413 H   0  0  0  0  0  0  0  0  0  0  0  0
   28.7745   11.6620  -13.3668 H   0  0  0  0  0  0  0  0  0  0  0  0
   26.3704    9.8014  -11.5623 H   0  0  0  0  0  0  0  0  0  0  0  0
   26.5111   10.6985  -13.1122 H   0  0  0  0  0  0  0  0  0  0  0  0
   26.4976    8.9023  -13.1122 H   0  0  0  0  0  0  0  0  0  0  0  0
   24.1443    9.2610   -4.4399 H   0  0  0  0  0  0  0  0  0  0  0  0
   20.9138    8.8074   -1.0534 H   0  0  0  0  0  0  0  0  0  0  0  0
   21.5475    6.6315   -0.0243 H   0  0  0  0  0  0  0  0  0  0  0  0
   24.3719    5.9485   -3.2089 H   0  0  0  0  0  0  0  0  0  0  0  0
   24.4990    4.7078   -1.1058 H   0  0  0  0  0  0  0  0  0  0  0  0
   23.2174    4.9770    0.1809 H   0  0  0  0  0  0  0  0  0  0  0  0
   22.3398    3.1669   -0.5875 H   0  0  0  0  0  0  0  0  0  0  0  0
  1  7  1  0
  1  2  2  0
  1  5  1  0
  2  3  1  0
  2 19  1  0
  3  4  1  0
  4  8  2  0
  4  6  1  0
  6 10  1  0
  6  7  2  0
  8  9  1  0
  9 12  1  0
  9 10  2  0
 19 20  2  0
 19 21  1  0
 21 22  1  0
 22 27  1  0
 22 23  2  0
 23 24  1  0
 24 25  2  0
 25 26  1  0
 26 27  2  0
 26 28  1  0
 28 29  1  0
 12 13  1  0
 13 17  1  0
 13 14  2  0
 14 15  1  0
 15 16  2  0
 16 17  1  0
 17 18  1  0
  5 11  1  0
  3 30  1  0
  7 31  1  0
 10 32  1  0
 11 33  1  1
 11 34  1  0
 11 35  1  0
 12 36  1  0
 15 37  1  0
 16 38  1  0
 18 39  1  1
 18 40  1  0
 18 41  1  0
 21 42  1  0
 24 43  1  0
 25 44  1  0
 27 45  1  0
 28 46  1  1
 28 47  1  0
 29 48  1  0
M  END
>  <Pose ID>  (65)
78

>  <Score>  (65)
-7.082446098327637

>  <smiles>  (65)
COc1cc2cc(Nc3nccn3C)nc-2[nH]c1C(=O)Nc1cc(CO)ccn1

$$$$

     RDKit          3D

 41 44  0  0  0  0  0  0  0  0999 V2000
   25.2110    9.4810   -6.8230 C   0  0  0  0  0  0  0  0  0  0  0  0
   25.0210    8.1230   -6.5820 C   0  0  0  0  0  0  0  0  0  0  0  0
   25.6420    7.1790   -7.3880 N   0  0  0  0  0  0  0  0  0  0  0  0
   26.4570    7.5920   -8.4400 C   0  0  0  0  0  0  0  0  0  0  0  0
   24.7410   10.5280   -6.2050 O   0  0  0  0  0  0  0  0  0  0  0  0
   26.6480    8.9440   -8.6800 C   0  0  0  0  0  0  0  0  0  0  0  0
   26.0270    9.8910   -7.8730 C   0  0  0  0  0  0  0  0  0  0  0  0
   27.1540    6.8770   -9.3420 N   0  0  0  0  0  0  0  0  0  0  0  0
   27.8050    7.7490  -10.1850 C   0  0  0  0  0  0  0  0  0  0  0  0
   27.3850    8.9850   -9.6490 C   0  0  0  0  0  0  0  0  0  0  0  0
   25.6950   11.1450   -5.3490 C   0  0  1  0  0  0  0  0  0  0  0  0
   28.6480    7.6670  -11.2680 N   0  0  0  0  0  0  0  0  0  0  0  0
   29.1130    8.7940  -11.8580 C   0  0  0  0  0  0  0  0  0  0  0  0
   30.4890    9.1000  -11.9870 N   0  0  0  0  0  0  0  0  0  0  0  0
   30.5960   10.3280  -12.6520 C   0  0  0  0  0  0  0  0  0  0  0  0
   29.2260   10.6270  -12.8560 C   0  0  0  0  0  0  0  0  0  0  0  0
   28.3450    9.7110  -12.3940 N   0  0  0  0  0  0  0  0  0  0  0  0
   26.8750    9.7800  -12.5180 C   0  0  1  0  0  0  0  0  0  0  0  0
   24.1990    7.7080   -5.5170 C   0  0  0  0  0  0  0  0  0  0  0  0
   23.1690    6.7500   -5.5340 C   0  0  0  0  0  0  0  0  0  0  0  0
   24.2060    8.2360   -4.3250 N   0  0  0  0  0  0  0  0  0  0  0  0
   22.6380    6.7020   -4.1820 C   0  0  0  0  0  0  0  0  0  0  0  0
   23.2830    7.7220   -3.6060 N   0  0  0  0  0  0  0  0  0  0  0  0
   23.0460    8.1680   -2.2100 C   0  0  1  0  0  0  0  0  0  0  0  0
   25.5006    6.1746   -7.2087 H   0  0  0  0  0  0  0  0  0  0  0  0
   26.1807   10.9633   -8.0645 H   0  0  0  0  0  0  0  0  0  0  0  0
   27.7082    9.9413  -10.0860 H   0  0  0  0  0  0  0  0  0  0  0  0
   25.4169   10.9651   -4.3001 H   0  0  0  0  0  0  0  0  0  0  0  0
   26.6907   10.7193   -5.5425 H   0  0  0  0  0  0  0  0  0  0  0  0
   25.7152   12.2277   -5.5425 H   0  0  0  0  0  0  0  0  0  0  0  0
   28.9270    6.7448  -11.6321 H   0  0  0  0  0  0  0  0  0  0  0  0
   31.4918   10.8997  -12.9361 H   0  0  0  0  0  0  0  0  0  0  0  0
   28.8989   11.5485  -13.3597 H   0  0  0  0  0  0  0  0  0  0  0  0
   26.4231    9.8012  -11.5154 H   0  0  0  0  0  0  0  0  0  0  0  0
   26.5956   10.6922  -13.0655 H   0  0  0  0  0  0  0  0  0  0  0  0
   26.5114    8.8979  -13.0655 H   0  0  0  0  0  0  0  0  0  0  0  0
   22.8330    6.1565   -6.3971 H   0  0  0  0  0  0  0  0  0  0  0  0
   21.9011    6.0103   -3.7478 H   0  0  0  0  0  0  0  0  0  0  0  0
   23.4451    7.4170   -1.5124 H   0  0  0  0  0  0  0  0  0  0  0  0
   23.5518    9.1302   -2.0416 H   0  0  0  0  0  0  0  0  0  0  0  0
   21.9655    8.2873   -2.0416 H   0  0  0  0  0  0  0  0  0  0  0  0
  1  7  1  0
  1  2  2  0
  1  5  1  0
  2  3  1  0
  2 19  1  0
  3  4  1  0
  4  8  2  0
  4  6  1  0
  6 10  1  0
  6  7  2  0
  8  9  1  0
  9 12  1  0
  9 10  2  0
 12 13  1  0
 13 17  1  0
 13 14  2  0
 14 15  1  0
 15 16  2  0
 16 17  1  0
 17 18  1  0
 19 20  1  0
 19 21  2  0
 20 22  2  0
 21 23  1  0
 22 23  1  0
 23 24  1  0
  5 11  1  0
  3 25  1  0
  7 26  1  0
 10 27  1  0
 11 28  1  1
 11 29  1  0
 11 30  1  0
 12 31  1  0
 15 32  1  0
 16 33  1  0
 18 34  1  1
 18 35  1  0
 18 36  1  0
 20 37  1  0
 22 38  1  0
 24 39  1  1
 24 40  1  0
 24 41  1  0
M  END
>  <Pose ID>  (66)
2

>  <Score>  (66)
-7.0539422035217285

>  <smiles>  (66)
COc1cc2cc(Nc3nccn3C)nc-2[nH]c1-c1ccn(C)n1

$$$$

     RDKit          3D

 44 47  0  0  0  0  0  0  0  0999 V2000
   25.1930    9.3760   -6.8100 C   0  0  0  0  0  0  0  0  0  0  0  0
   24.9870    8.0130   -6.6090 C   0  0  0  0  0  0  0  0  0  0  0  0
   25.5970    7.0880   -7.4450 N   0  0  0  0  0  0  0  0  0  0  0  0
   26.4160    7.5250   -8.4840 C   0  0  0  0  0  0  0  0  0  0  0  0
   24.7330   10.4090   -6.1580 O   0  0  0  0  0  0  0  0  0  0  0  0
   26.6220    8.8820   -8.6810 C   0  0  0  0  0  0  0  0  0  0  0  0
   26.0110    9.8070   -7.8480 C   0  0  0  0  0  0  0  0  0  0  0  0
   27.1050    6.8290   -9.4070 N   0  0  0  0  0  0  0  0  0  0  0  0
   27.7660    7.7190  -10.2230 C   0  0  0  0  0  0  0  0  0  0  0  0
   27.3580    8.9430   -9.6510 C   0  0  0  0  0  0  0  0  0  0  0  0
   25.6930   10.9880   -5.2850 C   0  0  1  0  0  0  0  0  0  0  0  0
   28.6050    7.6640  -11.3100 N   0  0  0  0  0  0  0  0  0  0  0  0
   29.0810    8.8040  -11.8670 C   0  0  0  0  0  0  0  0  0  0  0  0
   30.4600    9.0990  -11.9870 N   0  0  0  0  0  0  0  0  0  0  0  0
   30.5820   10.3470  -12.6160 C   0  0  0  0  0  0  0  0  0  0  0  0
   29.2130   10.6660  -12.8070 C   0  0  0  0  0  0  0  0  0  0  0  0
   28.3220    9.7460  -12.3740 N   0  0  0  0  0  0  0  0  0  0  0  0
   26.8550    9.8320  -12.4920 C   0  0  1  0  0  0  0  0  0  0  0  0
   24.2050    7.3760   -5.6530 C   0  0  0  0  0  0  0  0  0  0  0  0
   22.8700    7.7550   -5.5600 C   0  0  0  0  0  0  0  0  0  0  0  0
   24.7280    6.4490   -4.7590 C   0  0  0  0  0  0  0  0  0  0  0  0
   22.0600    7.2030   -4.5760 N   0  0  0  0  0  0  0  0  0  0  0  0
   22.5840    6.2770   -3.6820 C   0  0  0  0  0  0  0  0  0  0  0  0
   23.8970    5.9180   -3.7190 C   0  0  0  0  0  0  0  0  0  0  0  0
   22.4010    8.5860   -6.3590 O   0  0  0  0  0  0  0  0  0  0  0  0
   21.6780    5.6560   -2.6490 C   0  0  1  0  0  0  0  0  0  0  0  0
   25.4444    6.0801   -7.2975 H   0  0  0  0  0  0  0  0  0  0  0  0
   26.1738   10.8829   -8.0088 H   0  0  0  0  0  0  0  0  0  0  0  0
   27.6891    9.9082  -10.0617 H   0  0  0  0  0  0  0  0  0  0  0  0
   25.3951   10.8083   -4.2415 H   0  0  0  0  0  0  0  0  0  0  0  0
   26.6774   10.5329   -5.4689 H   0  0  0  0  0  0  0  0  0  0  0  0
   25.7497   12.0710   -5.4689 H   0  0  0  0  0  0  0  0  0  0  0  0
   28.8736    6.7509  -11.7037 H   0  0  0  0  0  0  0  0  0  0  0  0
   31.4837   10.9168  -12.8849 H   0  0  0  0  0  0  0  0  0  0  0  0
   28.8950   11.6069  -13.2798 H   0  0  0  0  0  0  0  0  0  0  0  0
   26.4073    9.8582  -11.4876 H   0  0  0  0  0  0  0  0  0  0  0  0
   26.5841   10.7476  -13.0382 H   0  0  0  0  0  0  0  0  0  0  0  0
   26.4790    8.9544  -13.0382 H   0  0  0  0  0  0  0  0  0  0  0  0
   25.7751    6.1244   -4.8493 H   0  0  0  0  0  0  0  0  0  0  0  0
   21.0703    7.4801   -4.5088 H   0  0  0  0  0  0  0  0  0  0  0  0
   24.3121    5.2333   -2.9648 H   0  0  0  0  0  0  0  0  0  0  0  0
   22.0437    5.9067   -1.6423 H   0  0  0  0  0  0  0  0  0  0  0  0
   20.6569    6.0450   -2.7755 H   0  0  0  0  0  0  0  0  0  0  0  0
   21.6724    4.5633   -2.7755 H   0  0  0  0  0  0  0  0  0  0  0  0
  1  7  1  0
  1  2  2  0
  1  5  1  0
  2  3  1  0
  2 19  1  0
  3  4  1  0
  4  8  2  0
  4  6  1  0
  6 10  1  0
  6  7  2  0
  8  9  1  0
  9 12  1  0
  9 10  2  0
 19 20  1  0
 19 21  2  0
 20 25  2  0
 20 22  1  0
 21 24  1  0
 22 23  1  0
 23 24  2  0
 23 26  1  0
 12 13  1  0
 13 17  1  0
 13 14  2  0
 14 15  1  0
 15 16  2  0
 16 17  1  0
 17 18  1  0
  5 11  1  0
  3 27  1  0
  7 28  1  0
 10 29  1  0
 11 30  1  1
 11 31  1  0
 11 32  1  0
 12 33  1  0
 15 34  1  0
 16 35  1  0
 18 36  1  1
 18 37  1  0
 18 38  1  0
 21 39  1  0
 22 40  1  0
 24 41  1  0
 26 42  1  1
 26 43  1  0
 26 44  1  0
M  END
>  <Pose ID>  (67)
52

>  <Score>  (67)
-7.051126003265381

>  <smiles>  (67)
COc1cc2cc(Nc3nccn3C)nc-2[nH]c1-c1ccc(C)[nH]c1=O

$$$$

     RDKit          3D

 48 51  0  0  0  0  0  0  0  0999 V2000
   25.1520    9.3200   -6.8860 C   0  0  0  0  0  0  0  0  0  0  0  0
   25.0170    7.9500   -6.6710 C   0  0  0  0  0  0  0  0  0  0  0  0
   25.6770    7.0490   -7.4930 N   0  0  0  0  0  0  0  0  0  0  0  0
   26.4790    7.5150   -8.5330 C   0  0  0  0  0  0  0  0  0  0  0  0
   24.6370   10.3360   -6.2500 O   0  0  0  0  0  0  0  0  0  0  0  0
   26.6160    8.8800   -8.7450 C   0  0  0  0  0  0  0  0  0  0  0  0
   25.9550    9.7830   -7.9240 C   0  0  0  0  0  0  0  0  0  0  0  0
   27.2080    6.8460   -9.4460 N   0  0  0  0  0  0  0  0  0  0  0  0
   27.8280    7.7600  -10.2690 C   0  0  0  0  0  0  0  0  0  0  0  0
   27.3530    8.9660   -9.7110 C   0  0  0  0  0  0  0  0  0  0  0  0
   25.5630   10.9730   -5.3760 C   0  0  1  0  0  0  0  0  0  0  0  0
   28.6760    7.7340  -11.3500 N   0  0  0  0  0  0  0  0  0  0  0  0
   29.0950    8.8910  -11.9170 C   0  0  0  0  0  0  0  0  0  0  0  0
   30.4600    9.2560  -12.0320 N   0  0  0  0  0  0  0  0  0  0  0  0
   30.5200   10.5010  -12.6730 C   0  0  0  0  0  0  0  0  0  0  0  0
   29.1380   10.7460  -12.8780 C   0  0  0  0  0  0  0  0  0  0  0  0
   28.2950    9.7870  -12.4370 N   0  0  0  0  0  0  0  0  0  0  0  0
   26.8250    9.7980  -12.5640 C   0  0  1  0  0  0  0  0  0  0  0  0
   24.1650    7.4550   -5.5610 C   0  0  0  0  0  0  0  0  0  0  0  0
   23.6500    6.3400   -5.5920 O   0  0  0  0  0  0  0  0  0  0  0  0
   23.8810    8.2660   -4.4010 N   0  0  0  0  0  0  0  0  0  0  0  0
   23.2990    7.8210   -3.2740 C   0  0  0  0  0  0  0  0  0  0  0  0
   22.3180    8.6080   -2.6850 N   0  0  0  0  0  0  0  0  0  0  0  0
   21.6900    8.1830   -1.5200 C   0  0  0  0  0  0  0  0  0  0  0  0
   22.0440    6.9690   -0.9460 C   0  0  0  0  0  0  0  0  0  0  0  0
   23.0250    6.1800   -1.5350 C   0  0  0  0  0  0  0  0  0  0  0  0
   23.6300    6.5940   -2.7160 C   0  0  0  0  0  0  0  0  0  0  0  0
   23.4330    4.8760   -0.8930 C   0  0  1  0  0  0  0  0  0  0  0  0
   21.4290    6.5510    0.1960 O   0  0  0  0  0  0  0  0  0  0  0  0
   25.5745    6.0364   -7.3350 H   0  0  0  0  0  0  0  0  0  0  0  0
   26.0658   10.8642   -8.0937 H   0  0  0  0  0  0  0  0  0  0  0  0
   27.6363    9.9425  -10.1307 H   0  0  0  0  0  0  0  0  0  0  0  0
   25.2770   10.7762   -4.3322 H   0  0  0  0  0  0  0  0  0  0  0  0
   26.5728   10.5775   -5.5603 H   0  0  0  0  0  0  0  0  0  0  0  0
   25.5547   12.0574   -5.5603 H   0  0  0  0  0  0  0  0  0  0  0  0
   28.9943    6.8314  -11.7307 H   0  0  0  0  0  0  0  0  0  0  0  0
   31.3925   11.1148  -12.9413 H   0  0  0  0  0  0  0  0  0  0  0  0
   28.7745   11.6620  -13.3668 H   0  0  0  0  0  0  0  0  0  0  0  0
   26.3704    9.8014  -11.5623 H   0  0  0  0  0  0  0  0  0  0  0  0
   26.5111   10.6985  -13.1122 H   0  0  0  0  0  0  0  0  0  0  0  0
   26.4976    8.9023  -13.1122 H   0  0  0  0  0  0  0  0  0  0  0  0
   24.1443    9.2610   -4.4399 H   0  0  0  0  0  0  0  0  0  0  0  0
   20.9138    8.8074   -1.0534 H   0  0  0  0  0  0  0  0  0  0  0  0
   24.3719    5.9485   -3.2089 H   0  0  0  0  0  0  0  0  0  0  0  0
   23.4004    4.9802    0.2016 H   0  0  0  0  0  0  0  0  0  0  0  0
   22.7408    4.0806   -1.2064 H   0  0  0  0  0  0  0  0  0  0  0  0
   24.4551    4.6170   -1.2064 H   0  0  0  0  0  0  0  0  0  0  0  0
   21.6810    5.6857    0.6056 H   0  0  0  0  0  0  0  0  0  0  0  0
  1  7  1  0
  1  2  2  0
  1  5  1  0
  2  3  1  0
  2 19  1  0
  3  4  1  0
  4  8  2  0
  4  6  1  0
  6 10  1  0
  6  7  2  0
  8  9  1  0
  9 12  1  0
  9 10  2  0
 19 20  2  0
 19 21  1  0
 21 22  1  0
 22 27  1  0
 22 23  2  0
 23 24  1  0
 24 25  2  0
 25 26  1  0
 25 29  1  0
 26 27  2  0
 26 28  1  0
 12 13  1  0
 13 17  1  0
 13 14  2  0
 14 15  1  0
 15 16  2  0
 16 17  1  0
 17 18  1  0
  5 11  1  0
  3 30  1  0
  7 31  1  0
 10 32  1  0
 11 33  1  1
 11 34  1  0
 11 35  1  0
 12 36  1  0
 15 37  1  0
 16 38  1  0
 18 39  1  1
 18 40  1  0
 18 41  1  0
 21 42  1  0
 24 43  1  0
 27 44  1  0
 28 45  1  1
 28 46  1  0
 28 47  1  0
 29 48  1  0
M  END
>  <Pose ID>  (68)
79

>  <Score>  (68)
-7.049290180206299

>  <smiles>  (68)
COc1cc2cc(Nc3nccn3C)nc-2[nH]c1C(=O)Nc1cc(C)c(O)cn1

$$$$

     RDKit          3D

 44 47  0  0  0  0  0  0  0  0999 V2000
   25.3030    9.5110   -6.8950 C   0  0  0  0  0  0  0  0  0  0  0  0
   25.1640    8.1440   -6.6690 C   0  0  0  0  0  0  0  0  0  0  0  0
   25.8090    7.2330   -7.4930 N   0  0  0  0  0  0  0  0  0  0  0  0
   26.6010    7.6860   -8.5450 C   0  0  0  0  0  0  0  0  0  0  0  0
   24.8030   10.5360   -6.2620 O   0  0  0  0  0  0  0  0  0  0  0  0
   26.7430    9.0490   -8.7690 C   0  0  0  0  0  0  0  0  0  0  0  0
   26.0960    9.9610   -7.9480 C   0  0  0  0  0  0  0  0  0  0  0  0
   27.3130    7.0070   -9.4620 N   0  0  0  0  0  0  0  0  0  0  0  0
   27.9270    7.9110  -10.3010 C   0  0  0  0  0  0  0  0  0  0  0  0
   27.4680    9.1240   -9.7460 C   0  0  0  0  0  0  0  0  0  0  0  0
   25.7420   11.1750   -5.4050 C   0  0  1  0  0  0  0  0  0  0  0  0
   28.7620    7.8720  -11.3910 N   0  0  0  0  0  0  0  0  0  0  0  0
   29.1810    9.0230  -11.9730 C   0  0  0  0  0  0  0  0  0  0  0  0
   30.5440    9.3780  -12.1090 N   0  0  0  0  0  0  0  0  0  0  0  0
   30.6040   10.6170  -12.7600 C   0  0  0  0  0  0  0  0  0  0  0  0
   29.2220   10.8700  -12.9470 C   0  0  0  0  0  0  0  0  0  0  0  0
   28.3770    9.9190  -12.4900 N   0  0  0  0  0  0  0  0  0  0  0  0
   26.9060    9.9370  -12.5990 C   0  0  1  0  0  0  0  0  0  0  0  0
   24.3460    7.9540   -5.5840 N   0  0  0  0  0  0  0  0  0  0  0  0
   24.0410    6.4960   -5.1390 C   0  0  1  0  0  0  0  0  0  0  0  0
   22.8840    6.4860   -4.1040 C   0  0  0  0  0  0  0  0  0  0  0  0
   21.9720    5.4370   -4.1230 N   0  0  0  0  0  0  0  0  0  0  0  0
   20.9240    5.4100   -3.2090 C   0  0  0  0  0  0  0  0  0  0  0  0
   22.7470    7.5080   -3.1730 C   0  0  0  0  0  0  0  0  0  0  0  0
   20.7890    6.4330   -2.2780 N   0  0  0  0  0  0  0  0  0  0  0  0
   21.7000    7.4780   -2.2630 C   0  0  0  0  0  0  0  0  0  0  0  0
   23.9190    8.8610   -3.1470 Cl  0  0  0  0  0  0  0  0  0  0  0  0
   25.7021    6.2222   -7.3267 H   0  0  0  0  0  0  0  0  0  0  0  0
   26.2093   11.0401   -8.1287 H   0  0  0  0  0  0  0  0  0  0  0  0
   27.7521   10.0956  -10.1764 H   0  0  0  0  0  0  0  0  0  0  0  0
   25.4676   10.9882   -4.3563 H   0  0  0  0  0  0  0  0  0  0  0  0
   26.7475   10.7729   -5.5981 H   0  0  0  0  0  0  0  0  0  0  0  0
   25.7369   12.2579   -5.5981 H   0  0  0  0  0  0  0  0  0  0  0  0
   29.0712    6.9647  -11.7679 H   0  0  0  0  0  0  0  0  0  0  0  0
   31.4769   11.2224  -13.0454 H   0  0  0  0  0  0  0  0  0  0  0  0
   28.8585   11.7862  -13.4352 H   0  0  0  0  0  0  0  0  0  0  0  0
   26.4637    9.9424  -11.5918 H   0  0  0  0  0  0  0  0  0  0  0  0
   26.5897   10.8391  -13.1432 H   0  0  0  0  0  0  0  0  0  0  0  0
   26.5677    9.0429  -13.1432 H   0  0  0  0  0  0  0  0  0  0  0  0
   23.9446    8.7561   -5.0777 H   0  0  0  0  0  0  0  0  0  0  0  0
   23.7491    5.9010   -6.0169 H   0  0  0  0  0  0  0  0  0  0  0  0
   24.9413    6.0643   -4.6773 H   0  0  0  0  0  0  0  0  0  0  0  0
   20.2026    4.5797   -3.2230 H   0  0  0  0  0  0  0  0  0  0  0  0
   21.5922    8.2874   -1.5260 H   0  0  0  0  0  0  0  0  0  0  0  0
  1  7  1  0
  1  2  2  0
  1  5  1  0
  2  3  1  0
  2 19  1  0
  3  4  1  0
  4  8  2  0
  4  6  1  0
  6 10  1  0
  6  7  2  0
  8  9  1  0
  9 12  1  0
  9 10  2  0
 12 13  1  0
 13 17  1  0
 13 14  2  0
 14 15  1  0
 15 16  2  0
 16 17  1  0
 17 18  1  0
  5 11  1  0
 19 20  1  0
 20 21  1  0
 21 22  2  0
 21 24  1  0
 22 23  1  0
 23 25  2  0
 24 27  1  0
 24 26  2  0
 25 26  1  0
  3 28  1  0
  7 29  1  0
 10 30  1  0
 11 31  1  1
 11 32  1  0
 11 33  1  0
 12 34  1  0
 15 35  1  0
 16 36  1  0
 18 37  1  1
 18 38  1  0
 18 39  1  0
 19 40  1  0
 20 41  1  6
 20 42  1  0
 23 43  1  0
 26 44  1  0
M  END
>  <Pose ID>  (69)
113

>  <Score>  (69)
-7.028232097625732

>  <smiles>  (69)
COc1cc2cc(Nc3nccn3C)nc-2[nH]c1NCc1ncncc1Cl

$$$$

     RDKit          3D

 43 46  0  0  0  0  0  0  0  0999 V2000
   25.2250    9.3680   -6.9140 C   0  0  0  0  0  0  0  0  0  0  0  0
   25.0590    8.0000   -6.7180 C   0  0  0  0  0  0  0  0  0  0  0  0
   25.7000    7.0940   -7.5510 N   0  0  0  0  0  0  0  0  0  0  0  0
   26.5140    7.5560   -8.5810 C   0  0  0  0  0  0  0  0  0  0  0  0
   24.7330   10.3880   -6.2660 O   0  0  0  0  0  0  0  0  0  0  0  0
   26.6840    8.9200   -8.7740 C   0  0  0  0  0  0  0  0  0  0  0  0
   26.0420    9.8270   -7.9440 C   0  0  0  0  0  0  0  0  0  0  0  0
   27.2280    6.8840   -9.5020 N   0  0  0  0  0  0  0  0  0  0  0  0
   27.8720    7.7940  -10.3110 C   0  0  0  0  0  0  0  0  0  0  0  0
   27.4250    9.0040   -9.7380 C   0  0  0  0  0  0  0  0  0  0  0  0
   25.6720   10.9920   -5.3800 C   0  0  1  0  0  0  0  0  0  0  0  0
   28.7220    7.7620  -11.3910 N   0  0  0  0  0  0  0  0  0  0  0  0
   29.1690    8.9150  -11.9430 C   0  0  0  0  0  0  0  0  0  0  0  0
   30.5410    9.2490  -12.0500 N   0  0  0  0  0  0  0  0  0  0  0  0
   30.6330   10.5000  -12.6740 C   0  0  0  0  0  0  0  0  0  0  0  0
   29.2580   10.7820  -12.8770 C   0  0  0  0  0  0  0  0  0  0  0  0
   28.3900    9.8370  -12.4530 N   0  0  0  0  0  0  0  0  0  0  0  0
   26.9220    9.8840  -12.5820 C   0  0  1  0  0  0  0  0  0  0  0  0
   26.2280   11.3080   -8.1580 C   0  0  1  0  0  0  0  0  0  0  0  0
   24.0910    7.7510   -5.6280 C   0  0  0  0  0  0  0  0  0  0  0  0
   24.2750    8.3530   -4.3880 N   0  0  0  0  0  0  0  0  0  0  0  0
   23.2670    8.2980   -3.4330 C   0  0  0  0  0  0  0  0  0  0  0  0
   22.0770    7.6410   -3.7160 N   0  0  0  0  0  0  0  0  0  0  0  0
   21.8930    7.0380   -4.9550 C   0  0  0  0  0  0  0  0  0  0  0  0
   22.8860    7.1080   -5.9160 C   0  0  0  0  0  0  0  0  0  0  0  0
   23.4320    8.8380   -2.3230 O   0  0  0  0  0  0  0  0  0  0  0  0
   25.5737    6.0819   -7.4073 H   0  0  0  0  0  0  0  0  0  0  0  0
   27.7318    9.9794  -10.1435 H   0  0  0  0  0  0  0  0  0  0  0  0
   25.3714   10.7986   -4.3397 H   0  0  0  0  0  0  0  0  0  0  0  0
   26.6705   10.5664   -5.5583 H   0  0  0  0  0  0  0  0  0  0  0  0
   25.6988   12.0771   -5.5583 H   0  0  0  0  0  0  0  0  0  0  0  0
   29.0202    6.8570  -11.7821 H   0  0  0  0  0  0  0  0  0  0  0  0
   31.5209   11.0953  -12.9333 H   0  0  0  0  0  0  0  0  0  0  0  0
   28.9183   11.7145  -13.3514 H   0  0  0  0  0  0  0  0  0  0  0  0
   26.4662    9.8986  -11.5810 H   0  0  0  0  0  0  0  0  0  0  0  0
   26.6310   10.7919  -13.1306 H   0  0  0  0  0  0  0  0  0  0  0  0
   26.5735    8.9966  -13.1306 H   0  0  0  0  0  0  0  0  0  0  0  0
   26.2916   11.8142   -7.1834 H   0  0  0  0  0  0  0  0  0  0  0  0
   27.1552   11.4832   -8.7233 H   0  0  0  0  0  0  0  0  0  0  0  0
   25.3729   11.7070   -8.7233 H   0  0  0  0  0  0  0  0  0  0  0  0
   21.3303    7.6004   -3.0077 H   0  0  0  0  0  0  0  0  0  0  0  0
   20.9560    6.5041   -5.1718 H   0  0  0  0  0  0  0  0  0  0  0  0
   22.7259    6.6571   -6.9065 H   0  0  0  0  0  0  0  0  0  0  0  0
  1  7  1  0
  1  2  2  0
  1  5  1  0
  2  3  1  0
  2 20  1  0
  3  4  1  0
  4  8  2  0
  4  6  1  0
  6 10  1  0
  6  7  2  0
  7 19  1  0
  8  9  1  0
  9 12  1  0
  9 10  2  0
 12 13  1  0
 13 17  1  0
 13 14  2  0
 14 15  1  0
 15 16  2  0
 16 17  1  0
 17 18  1  0
 20 25  1  0
 20 21  2  0
 21 22  1  0
 22 23  1  0
 22 26  2  0
 23 24  1  0
 24 25  2  0
  5 11  1  0
  3 27  1  0
 10 28  1  0
 11 29  1  1
 11 30  1  0
 11 31  1  0
 12 32  1  0
 15 33  1  0
 16 34  1  0
 18 35  1  1
 18 36  1  0
 18 37  1  0
 19 38  1  1
 19 39  1  0
 19 40  1  0
 23 41  1  0
 24 42  1  0
 25 43  1  0
M  END
>  <Pose ID>  (70)
1

>  <Score>  (70)
-7.008883953094482

>  <smiles>  (70)
COc1c(-c2cc[nH]c(=O)n2)[nH]c2nc(Nc3nccn3C)cc-2c1C

$$$$

     RDKit          3D

 45 48  0  0  0  0  0  0  0  0999 V2000
   25.3010    9.5210   -6.8890 C   0  0  0  0  0  0  0  0  0  0  0  0
   25.1690    8.1540   -6.6590 C   0  0  0  0  0  0  0  0  0  0  0  0
   25.8180    7.2430   -7.4810 N   0  0  0  0  0  0  0  0  0  0  0  0
   26.6050    7.6980   -8.5360 C   0  0  0  0  0  0  0  0  0  0  0  0
   24.7970   10.5450   -6.2590 O   0  0  0  0  0  0  0  0  0  0  0  0
   26.7400    9.0600   -8.7650 C   0  0  0  0  0  0  0  0  0  0  0  0
   26.0900    9.9720   -7.9450 C   0  0  0  0  0  0  0  0  0  0  0  0
   27.3200    7.0200   -9.4520 N   0  0  0  0  0  0  0  0  0  0  0  0
   27.9270    7.9250  -10.2950 C   0  0  0  0  0  0  0  0  0  0  0  0
   27.4630    9.1370   -9.7430 C   0  0  0  0  0  0  0  0  0  0  0  0
   25.7340   11.1910   -5.4050 C   0  0  1  0  0  0  0  0  0  0  0  0
   28.7610    7.8860  -11.3870 N   0  0  0  0  0  0  0  0  0  0  0  0
   29.1730    9.0380  -11.9720 C   0  0  0  0  0  0  0  0  0  0  0  0
   30.5340    9.3990  -12.1120 N   0  0  0  0  0  0  0  0  0  0  0  0
   30.5860   10.6370  -12.7660 C   0  0  0  0  0  0  0  0  0  0  0  0
   29.2020   10.8820  -12.9520 C   0  0  0  0  0  0  0  0  0  0  0  0
   28.3630    9.9280  -12.4900 N   0  0  0  0  0  0  0  0  0  0  0  0
   26.8920    9.9380  -12.5980 C   0  0  1  0  0  0  0  0  0  0  0  0
   24.3540    7.9620   -5.5720 N   0  0  0  0  0  0  0  0  0  0  0  0
   24.0580    6.5050   -5.1220 C   0  0  1  0  0  0  0  0  0  0  0  0
   22.9140    6.4810   -4.0990 C   0  0  0  0  0  0  0  0  0  0  0  0
   22.0020    5.4320   -4.1080 N   0  0  0  0  0  0  0  0  0  0  0  0
   20.9550    5.4140   -3.1940 C   0  0  0  0  0  0  0  0  0  0  0  0
   22.7780    7.5110   -3.1770 C   0  0  0  0  0  0  0  0  0  0  0  0
   21.7320    7.4940   -2.2630 C   0  0  0  0  0  0  0  0  0  0  0  0
   20.8240    6.4600   -2.2700 C   0  0  0  0  0  0  0  0  0  0  0  0
   25.7177    6.2321   -7.3109 H   0  0  0  0  0  0  0  0  0  0  0  0
   26.1979   11.0511   -8.1290 H   0  0  0  0  0  0  0  0  0  0  0  0
   27.7414   10.1090  -10.1762 H   0  0  0  0  0  0  0  0  0  0  0  0
   25.4630   11.0042   -4.3554 H   0  0  0  0  0  0  0  0  0  0  0  0
   26.7415   10.7947   -5.5997 H   0  0  0  0  0  0  0  0  0  0  0  0
   25.7219   12.2736   -5.5997 H   0  0  0  0  0  0  0  0  0  0  0  0
   29.0739    6.9792  -11.7620 H   0  0  0  0  0  0  0  0  0  0  0  0
   31.4552   11.2467  -13.0539 H   0  0  0  0  0  0  0  0  0  0  0  0
   28.8328   11.7944  -13.4432 H   0  0  0  0  0  0  0  0  0  0  0  0
   26.4504    9.9410  -11.5905 H   0  0  0  0  0  0  0  0  0  0  0  0
   26.5704   10.8384  -13.1420 H   0  0  0  0  0  0  0  0  0  0  0  0
   26.5582    9.0421  -13.1420 H   0  0  0  0  0  0  0  0  0  0  0  0
   23.9489    8.7633   -5.0674 H   0  0  0  0  0  0  0  0  0  0  0  0
   23.7720    5.9061   -5.9992 H   0  0  0  0  0  0  0  0  0  0  0  0
   24.9617    6.0859   -4.6554 H   0  0  0  0  0  0  0  0  0  0  0  0
   20.2334    4.5838   -3.1957 H   0  0  0  0  0  0  0  0  0  0  0  0
   23.4995    8.3413   -3.1706 H   0  0  0  0  0  0  0  0  0  0  0  0
   21.6293    8.3093   -1.5317 H   0  0  0  0  0  0  0  0  0  0  0  0
   19.9934    6.4543   -1.5488 H   0  0  0  0  0  0  0  0  0  0  0  0
  1  7  1  0
  1  2  2  0
  1  5  1  0
  2  3  1  0
  2 19  1  0
  3  4  1  0
  4  8  2  0
  4  6  1  0
  6 10  1  0
  6  7  2  0
  8  9  1  0
  9 12  1  0
  9 10  2  0
 12 13  1  0
 13 17  1  0
 13 14  2  0
 14 15  1  0
 15 16  2  0
 16 17  1  0
 17 18  1  0
  5 11  1  0
 19 20  1  0
 20 21  1  0
 21 22  2  0
 21 24  1  0
 22 23  1  0
 23 26  2  0
 24 25  2  0
 25 26  1  0
  3 27  1  0
  7 28  1  0
 10 29  1  0
 11 30  1  1
 11 31  1  0
 11 32  1  0
 12 33  1  0
 15 34  1  0
 16 35  1  0
 18 36  1  1
 18 37  1  0
 18 38  1  0
 19 39  1  0
 20 40  1  6
 20 41  1  0
 23 42  1  0
 24 43  1  0
 25 44  1  0
 26 45  1  0
M  END
>  <Pose ID>  (71)
114

>  <Score>  (71)
-6.990711688995361

>  <smiles>  (71)
COc1cc2cc(Nc3nccn3C)nc-2[nH]c1NCc1ccccn1

$$$$

     RDKit          3D

 42 45  0  0  0  0  0  0  0  0999 V2000
   25.0990    9.2560   -7.0520 C   0  0  0  0  0  0  0  0  0  0  0  0
   24.9950    7.8820   -6.8510 C   0  0  0  0  0  0  0  0  0  0  0  0
   25.7040    7.0050   -7.6570 N   0  0  0  0  0  0  0  0  0  0  0  0
   26.5250    7.5000   -8.6670 C   0  0  0  0  0  0  0  0  0  0  0  0
   24.5360   10.2520   -6.4250 O   0  0  0  0  0  0  0  0  0  0  0  0
   26.6300    8.8700   -8.8660 C   0  0  0  0  0  0  0  0  0  0  0  0
   25.9200    9.7480   -8.0610 C   0  0  0  0  0  0  0  0  0  0  0  0
   27.3010    6.8590   -9.5610 N   0  0  0  0  0  0  0  0  0  0  0  0
   27.9190    7.7950  -10.3590 C   0  0  0  0  0  0  0  0  0  0  0  0
   27.3950    8.9840   -9.8080 C   0  0  0  0  0  0  0  0  0  0  0  0
   25.4160   10.9090   -5.5190 C   0  0  1  0  0  0  0  0  0  0  0  0
   28.8010    7.8020  -11.4130 N   0  0  0  0  0  0  0  0  0  0  0  0
   29.2060    8.9730  -11.9610 C   0  0  0  0  0  0  0  0  0  0  0  0
   30.5600    9.3750  -12.0310 N   0  0  0  0  0  0  0  0  0  0  0  0
   30.6070   10.6260  -12.6610 C   0  0  0  0  0  0  0  0  0  0  0  0
   29.2270   10.8370  -12.9060 C   0  0  0  0  0  0  0  0  0  0  0  0
   28.3950    9.8500  -12.4990 N   0  0  0  0  0  0  0  0  0  0  0  0
   26.9310    9.8230  -12.6720 C   0  0  1  0  0  0  0  0  0  0  0  0
   24.1890    7.3940   -5.8510 N   0  0  0  0  0  0  0  0  0  0  0  0
   23.4120    8.1560   -5.0680 C   0  0  0  0  0  0  0  0  0  0  0  0
   23.7960    8.5560   -3.7940 C   0  0  0  0  0  0  0  0  0  0  0  0
   22.9690    9.3870   -3.0490 N   0  0  0  0  0  0  0  0  0  0  0  0
   21.7580    9.8180   -3.5770 C   0  0  0  0  0  0  0  0  0  0  0  0
   21.3740    9.4180   -4.8500 C   0  0  0  0  0  0  0  0  0  0  0  0
   22.2090    8.5750   -5.5940 C   0  0  0  0  0  0  0  0  0  0  0  0
   25.6237    5.9888   -7.5091 H   0  0  0  0  0  0  0  0  0  0  0  0
   26.0061   10.8330   -8.2204 H   0  0  0  0  0  0  0  0  0  0  0  0
   27.6653    9.9710  -10.2113 H   0  0  0  0  0  0  0  0  0  0  0  0
   25.1138   10.6834   -4.4857 H   0  0  0  0  0  0  0  0  0  0  0  0
   26.4444   10.5559   -5.6857 H   0  0  0  0  0  0  0  0  0  0  0  0
   25.3698   11.9953   -5.6857 H   0  0  0  0  0  0  0  0  0  0  0  0
   29.1564    6.9113  -11.7887 H   0  0  0  0  0  0  0  0  0  0  0  0
   31.4710   11.2641  -12.8984 H   0  0  0  0  0  0  0  0  0  0  0  0
   28.8546   11.7480  -13.3973 H   0  0  0  0  0  0  0  0  0  0  0  0
   26.4453    9.8140  -11.6851 H   0  0  0  0  0  0  0  0  0  0  0  0
   26.6112   10.7154  -13.2300 H   0  0  0  0  0  0  0  0  0  0  0  0
   26.6443    8.9194  -13.2300 H   0  0  0  0  0  0  0  0  0  0  0  0
   24.1812    6.3763   -5.6925 H   0  0  0  0  0  0  0  0  0  0  0  0
   24.7544    8.2148   -3.3756 H   0  0  0  0  0  0  0  0  0  0  0  0
   21.1036   10.4761   -2.9865 H   0  0  0  0  0  0  0  0  0  0  0  0
   20.4182    9.7617   -5.2723 H   0  0  0  0  0  0  0  0  0  0  0  0
   21.9045    8.2471   -6.5989 H   0  0  0  0  0  0  0  0  0  0  0  0
  1  7  1  0
  1  2  2  0
  1  5  1  0
  2  3  1  0
  2 19  1  0
  3  4  1  0
  4  8  2  0
  4  6  1  0
  6 10  1  0
  6  7  2  0
  8  9  1  0
  9 12  1  0
  9 10  2  0
 12 13  1  0
 13 17  1  0
 13 14  2  0
 14 15  1  0
 15 16  2  0
 16 17  1  0
 17 18  1  0
  5 11  1  0
 19 20  1  0
 20 25  1  0
 20 21  2  0
 21 22  1  0
 22 23  2  0
 23 24  1  0
 24 25  2  0
  3 26  1  0
  7 27  1  0
 10 28  1  0
 11 29  1  1
 11 30  1  0
 11 31  1  0
 12 32  1  0
 15 33  1  0
 16 34  1  0
 18 35  1  1
 18 36  1  0
 18 37  1  0
 19 38  1  0
 21 39  1  0
 23 40  1  0
 24 41  1  0
 25 42  1  0
M  END
>  <Pose ID>  (72)
85

>  <Score>  (72)
-6.980687618255615

>  <smiles>  (72)
COc1cc2cc(Nc3nccn3C)nc-2[nH]c1Nc1cccnc1

$$$$

     RDKit          3D

 44 47  0  0  0  0  0  0  0  0999 V2000
   25.1990    9.3320   -6.9080 C   0  0  0  0  0  0  0  0  0  0  0  0
   25.0840    7.9590   -6.7020 C   0  0  0  0  0  0  0  0  0  0  0  0
   25.7520    7.0720   -7.5340 N   0  0  0  0  0  0  0  0  0  0  0  0
   26.5400    7.5570   -8.5760 C   0  0  0  0  0  0  0  0  0  0  0  0
   24.6730   10.3370   -6.2620 O   0  0  0  0  0  0  0  0  0  0  0  0
   26.6560    8.9250   -8.7800 C   0  0  0  0  0  0  0  0  0  0  0  0
   25.9870    9.8130   -7.9490 C   0  0  0  0  0  0  0  0  0  0  0  0
   27.2720    6.9050   -9.4980 N   0  0  0  0  0  0  0  0  0  0  0  0
   27.8730    7.8320  -10.3200 C   0  0  0  0  0  0  0  0  0  0  0  0
   27.3850    9.0280   -9.7510 C   0  0  0  0  0  0  0  0  0  0  0  0
   25.5960   10.9810   -5.3910 C   0  0  1  0  0  0  0  0  0  0  0  0
   28.7140    7.8260  -11.4070 N   0  0  0  0  0  0  0  0  0  0  0  0
   29.1120    8.9920  -11.9690 C   0  0  0  0  0  0  0  0  0  0  0  0
   30.4710    9.3780  -12.0910 N   0  0  0  0  0  0  0  0  0  0  0  0
   30.5080   10.6280  -12.7240 C   0  0  0  0  0  0  0  0  0  0  0  0
   29.1220   10.8540  -12.9180 C   0  0  0  0  0  0  0  0  0  0  0  0
   28.2950    9.8800  -12.4780 N   0  0  0  0  0  0  0  0  0  0  0  0
   26.8250    9.8710  -12.5950 C   0  0  1  0  0  0  0  0  0  0  0  0
   24.2480    7.4440   -5.5890 C   0  0  0  0  0  0  0  0  0  0  0  0
   23.7490    6.3220   -5.6240 O   0  0  0  0  0  0  0  0  0  0  0  0
   23.9610    8.2430   -4.4220 N   0  0  0  0  0  0  0  0  0  0  0  0
   23.3930    7.7830   -3.2940 C   0  0  0  0  0  0  0  0  0  0  0  0
   22.4050    8.5520   -2.6930 N   0  0  0  0  0  0  0  0  0  0  0  0
   21.7910    8.1100   -1.5270 C   0  0  0  0  0  0  0  0  0  0  0  0
   22.1670    6.8980   -0.9630 C   0  0  0  0  0  0  0  0  0  0  0  0
   23.1550    6.1270   -1.5630 C   0  0  0  0  0  0  0  0  0  0  0  0
   23.7460    6.5570   -2.7460 C   0  0  0  0  0  0  0  0  0  0  0  0
   21.3770    6.3270    0.5390 Cl  0  0  0  0  0  0  0  0  0  0  0  0
   25.6656    6.0570   -7.3817 H   0  0  0  0  0  0  0  0  0  0  0  0
   26.0798   10.8967   -8.1134 H   0  0  0  0  0  0  0  0  0  0  0  0
   27.6514   10.0111  -10.1664 H   0  0  0  0  0  0  0  0  0  0  0  0
   25.3133   10.7837   -4.3464 H   0  0  0  0  0  0  0  0  0  0  0  0
   26.6080   10.5920   -5.5767 H   0  0  0  0  0  0  0  0  0  0  0  0
   25.5802   12.0651   -5.5767 H   0  0  0  0  0  0  0  0  0  0  0  0
   29.0430    6.9308  -11.7959 H   0  0  0  0  0  0  0  0  0  0  0  0
   31.3695   11.2564  -12.9941 H   0  0  0  0  0  0  0  0  0  0  0  0
   28.7423   11.7679  -13.3982 H   0  0  0  0  0  0  0  0  0  0  0  0
   26.3772    9.8683  -11.5903 H   0  0  0  0  0  0  0  0  0  0  0  0
   26.4951   10.7671  -13.1410 H   0  0  0  0  0  0  0  0  0  0  0  0
   26.5061    8.9709  -13.1410 H   0  0  0  0  0  0  0  0  0  0  0  0
   24.2104    9.2418   -4.4561 H   0  0  0  0  0  0  0  0  0  0  0  0
   21.0083    8.7194   -1.0516 H   0  0  0  0  0  0  0  0  0  0  0  0
   23.4690    5.1784   -1.1031 H   0  0  0  0  0  0  0  0  0  0  0  0
   24.4937    5.9254   -3.2480 H   0  0  0  0  0  0  0  0  0  0  0  0
  1  7  1  0
  1  2  2  0
  1  5  1  0
  2  3  1  0
  2 19  1  0
  3  4  1  0
  4  8  2  0
  4  6  1  0
  6 10  1  0
  6  7  2  0
  8  9  1  0
  9 12  1  0
  9 10  2  0
 19 20  2  0
 19 21  1  0
 21 22  1  0
 22 27  1  0
 22 23  2  0
 23 24  1  0
 24 25  2  0
 25 26  1  0
 25 28  1  0
 26 27  2  0
 12 13  1  0
 13 17  1  0
 13 14  2  0
 14 15  1  0
 15 16  2  0
 16 17  1  0
 17 18  1  0
  5 11  1  0
  3 29  1  0
  7 30  1  0
 10 31  1  0
 11 32  1  1
 11 33  1  0
 11 34  1  0
 12 35  1  0
 15 36  1  0
 16 37  1  0
 18 38  1  1
 18 39  1  0
 18 40  1  0
 21 41  1  0
 24 42  1  0
 26 43  1  0
 27 44  1  0
M  END
>  <Pose ID>  (73)
72

>  <Score>  (73)
-6.9584150314331055

>  <smiles>  (73)
COc1cc2cc(Nc3nccn3C)nc-2[nH]c1C(=O)Nc1ccc(Cl)cn1

$$$$

     RDKit          3D

 42 45  0  0  0  0  0  0  0  0999 V2000
   25.1640    9.4530   -6.8650 C   0  0  0  0  0  0  0  0  0  0  0  0
   25.0020    8.0920   -6.6220 C   0  0  0  0  0  0  0  0  0  0  0  0
   25.6500    7.1600   -7.4200 N   0  0  0  0  0  0  0  0  0  0  0  0
   26.4650    7.5870   -8.4640 C   0  0  0  0  0  0  0  0  0  0  0  0
   24.6640   10.4920   -6.2550 O   0  0  0  0  0  0  0  0  0  0  0  0
   26.6290    8.9430   -8.7060 C   0  0  0  0  0  0  0  0  0  0  0  0
   25.9800    9.8770   -7.9090 C   0  0  0  0  0  0  0  0  0  0  0  0
   27.1870    6.8850   -9.3570 N   0  0  0  0  0  0  0  0  0  0  0  0
   27.8270    7.7690  -10.1980 C   0  0  0  0  0  0  0  0  0  0  0  0
   27.3730    8.9970   -9.6690 C   0  0  0  0  0  0  0  0  0  0  0  0
   25.5960   11.1310   -5.3900 C   0  0  1  0  0  0  0  0  0  0  0  0
   28.6810    7.7050  -11.2720 N   0  0  0  0  0  0  0  0  0  0  0  0
   29.1250    8.8400  -11.8620 C   0  0  0  0  0  0  0  0  0  0  0  0
   30.4950    9.1750  -11.9780 N   0  0  0  0  0  0  0  0  0  0  0  0
   30.5840   10.4050  -12.6470 C   0  0  0  0  0  0  0  0  0  0  0  0
   29.2090   10.6720  -12.8630 C   0  0  0  0  0  0  0  0  0  0  0  0
   28.3430    9.7380  -12.4080 N   0  0  0  0  0  0  0  0  0  0  0  0
   26.8750    9.7740  -12.5430 C   0  0  1  0  0  0  0  0  0  0  0  0
   24.2180    7.4430   -5.6480 C   0  0  0  0  0  0  0  0  0  0  0  0
   23.0810    8.0660   -5.1500 N   0  0  0  0  0  0  0  0  0  0  0  0
   22.3360    7.4550   -4.1470 C   0  0  0  0  0  0  0  0  0  0  0  0
   24.6130    6.2090   -5.1430 C   0  0  0  0  0  0  0  0  0  0  0  0
   22.7310    6.2220   -3.6430 C   0  0  0  0  0  0  0  0  0  0  0  0
   23.8540    5.5820   -4.1300 N   0  0  0  0  0  0  0  0  0  0  0  0
   21.1000    8.1310   -3.6070 C   0  0  1  0  0  0  0  0  0  0  0  0
   25.5279    6.1533   -7.2398 H   0  0  0  0  0  0  0  0  0  0  0  0
   26.1111   10.9518   -8.1031 H   0  0  0  0  0  0  0  0  0  0  0  0
   27.6775    9.9591  -10.1068 H   0  0  0  0  0  0  0  0  0  0  0  0
   25.3162   10.9392   -4.3436 H   0  0  0  0  0  0  0  0  0  0  0  0
   26.6040   10.7331   -5.5789 H   0  0  0  0  0  0  0  0  0  0  0  0
   25.5882   12.2146   -5.5789 H   0  0  0  0  0  0  0  0  0  0  0  0
   28.9853    6.7886  -11.6305 H   0  0  0  0  0  0  0  0  0  0  0  0
   31.4698   10.9949  -12.9250 H   0  0  0  0  0  0  0  0  0  0  0  0
   28.8661   11.5854  -13.3710 H   0  0  0  0  0  0  0  0  0  0  0  0
   26.4151    9.7853  -11.5438 H   0  0  0  0  0  0  0  0  0  0  0  0
   26.5795   10.6797  -13.0929 H   0  0  0  0  0  0  0  0  0  0  0  0
   26.5354    8.8839  -13.0929 H   0  0  0  0  0  0  0  0  0  0  0  0
   25.5180    5.7203   -5.5330 H   0  0  0  0  0  0  0  0  0  0  0  0
   22.1408    5.7486   -2.8445 H   0  0  0  0  0  0  0  0  0  0  0  0
   21.1253    8.1172   -2.5074 H   0  0  0  0  0  0  0  0  0  0  0  0
   21.0678    9.1723   -3.9600 H   0  0  0  0  0  0  0  0  0  0  0  0
   20.2058    7.5964   -3.9600 H   0  0  0  0  0  0  0  0  0  0  0  0
  1  7  1  0
  1  2  2  0
  1  5  1  0
  2  3  1  0
  2 19  1  0
  3  4  1  0
  4  8  2  0
  4  6  1  0
  6 10  1  0
  6  7  2  0
  8  9  1  0
  9 12  1  0
  9 10  2  0
 12 13  1  0
 13 17  1  0
 13 14  2  0
 14 15  1  0
 15 16  2  0
 16 17  1  0
 17 18  1  0
 19 20  2  0
 19 22  1  0
 20 21  1  0
 21 23  2  0
 21 25  1  0
 22 24  2  0
 23 24  1  0
  5 11  1  0
  3 26  1  0
  7 27  1  0
 10 28  1  0
 11 29  1  1
 11 30  1  0
 11 31  1  0
 12 32  1  0
 15 33  1  0
 16 34  1  0
 18 35  1  1
 18 36  1  0
 18 37  1  0
 22 38  1  0
 23 39  1  0
 25 40  1  1
 25 41  1  0
 25 42  1  0
M  END
>  <Pose ID>  (74)
46

>  <Score>  (74)
-6.948301315307617

>  <smiles>  (74)
COc1cc2cc(Nc3nccn3C)nc-2[nH]c1-c1cncc(C)n1

$$$$

     RDKit          3D

 45 48  0  0  0  0  0  0  0  0999 V2000
   25.1970    9.3300   -6.9090 C   0  0  0  0  0  0  0  0  0  0  0  0
   25.0810    7.9570   -6.7030 C   0  0  0  0  0  0  0  0  0  0  0  0
   25.7480    7.0700   -7.5350 N   0  0  0  0  0  0  0  0  0  0  0  0
   26.5380    7.5540   -8.5760 C   0  0  0  0  0  0  0  0  0  0  0  0
   24.6720   10.3350   -6.2630 O   0  0  0  0  0  0  0  0  0  0  0  0
   26.6550    8.9220   -8.7800 C   0  0  0  0  0  0  0  0  0  0  0  0
   25.9870    9.8100   -7.9490 C   0  0  0  0  0  0  0  0  0  0  0  0
   27.2700    6.9010   -9.4980 N   0  0  0  0  0  0  0  0  0  0  0  0
   27.8720    7.8280  -10.3190 C   0  0  0  0  0  0  0  0  0  0  0  0
   27.3850    9.0240   -9.7500 C   0  0  0  0  0  0  0  0  0  0  0  0
   25.5950   10.9780   -5.3910 C   0  0  1  0  0  0  0  0  0  0  0  0
   28.7140    7.8210  -11.4050 N   0  0  0  0  0  0  0  0  0  0  0  0
   29.1140    8.9870  -11.9670 C   0  0  0  0  0  0  0  0  0  0  0  0
   30.4730    9.3710  -12.0880 N   0  0  0  0  0  0  0  0  0  0  0  0
   30.5120   10.6210  -12.7210 C   0  0  0  0  0  0  0  0  0  0  0  0
   29.1260   10.8490  -12.9160 C   0  0  0  0  0  0  0  0  0  0  0  0
   28.2980    9.8760  -12.4760 N   0  0  0  0  0  0  0  0  0  0  0  0
   26.8280    9.8680  -12.5940 C   0  0  1  0  0  0  0  0  0  0  0  0
   24.2430    7.4430   -5.5910 C   0  0  0  0  0  0  0  0  0  0  0  0
   23.7430    6.3210   -5.6260 O   0  0  0  0  0  0  0  0  0  0  0  0
   23.9560    8.2420   -4.4240 N   0  0  0  0  0  0  0  0  0  0  0  0
   23.3870    7.7820   -3.2960 C   0  0  0  0  0  0  0  0  0  0  0  0
   22.3990    8.5520   -2.6960 N   0  0  0  0  0  0  0  0  0  0  0  0
   21.7840    8.1110   -1.5300 C   0  0  0  0  0  0  0  0  0  0  0  0
   22.1580    6.8980   -0.9660 C   0  0  0  0  0  0  0  0  0  0  0  0
   23.1460    6.1260   -1.5660 C   0  0  0  0  0  0  0  0  0  0  0  0
   23.7380    6.5560   -2.7480 C   0  0  0  0  0  0  0  0  0  0  0  0
   21.5550    6.4640    0.1770 O   0  0  0  0  0  0  0  0  0  0  0  0
   25.6595    6.0550   -7.3836 H   0  0  0  0  0  0  0  0  0  0  0  0
   26.0820   10.8936   -8.1124 H   0  0  0  0  0  0  0  0  0  0  0  0
   27.6532   10.0069  -10.1648 H   0  0  0  0  0  0  0  0  0  0  0  0
   25.3114   10.7805   -4.3467 H   0  0  0  0  0  0  0  0  0  0  0  0
   26.6068   10.5883   -5.5762 H   0  0  0  0  0  0  0  0  0  0  0  0
   25.5801   12.0622   -5.5762 H   0  0  0  0  0  0  0  0  0  0  0  0
   29.0424    6.9254  -11.7934 H   0  0  0  0  0  0  0  0  0  0  0  0
   31.3745   11.2482  -12.9905 H   0  0  0  0  0  0  0  0  0  0  0  0
   28.7476   11.7632  -13.3967 H   0  0  0  0  0  0  0  0  0  0  0  0
   26.3795    9.8656  -11.5896 H   0  0  0  0  0  0  0  0  0  0  0  0
   26.4991   10.7644  -13.1402 H   0  0  0  0  0  0  0  0  0  0  0  0
   26.5089    8.9681  -13.1402 H   0  0  0  0  0  0  0  0  0  0  0  0
   24.2061    9.2406   -4.4578 H   0  0  0  0  0  0  0  0  0  0  0  0
   21.0023    8.7217   -1.0547 H   0  0  0  0  0  0  0  0  0  0  0  0
   23.4588    5.1768   -1.1065 H   0  0  0  0  0  0  0  0  0  0  0  0
   24.4855    5.9239   -3.2496 H   0  0  0  0  0  0  0  0  0  0  0  0
   21.8211    5.5995    0.5795 H   0  0  0  0  0  0  0  0  0  0  0  0
  1  7  1  0
  1  2  2  0
  1  5  1  0
  2  3  1  0
  2 19  1  0
  3  4  1  0
  4  8  2  0
  4  6  1  0
  6 10  1  0
  6  7  2  0
  8  9  1  0
  9 12  1  0
  9 10  2  0
 19 20  2  0
 19 21  1  0
 21 22  1  0
 22 27  1  0
 22 23  2  0
 23 24  1  0
 24 25  2  0
 25 26  1  0
 25 28  1  0
 26 27  2  0
 12 13  1  0
 13 17  1  0
 13 14  2  0
 14 15  1  0
 15 16  2  0
 16 17  1  0
 17 18  1  0
  5 11  1  0
  3 29  1  0
  7 30  1  0
 10 31  1  0
 11 32  1  1
 11 33  1  0
 11 34  1  0
 12 35  1  0
 15 36  1  0
 16 37  1  0
 18 38  1  1
 18 39  1  0
 18 40  1  0
 21 41  1  0
 24 42  1  0
 26 43  1  0
 27 44  1  0
 28 45  1  0
M  END
>  <Pose ID>  (75)
73

>  <Score>  (75)
-6.928329944610596

>  <smiles>  (75)
COc1cc2cc(Nc3nccn3C)nc-2[nH]c1C(=O)Nc1ccc(O)cn1

$$$$

     RDKit          3D

 48 51  0  0  0  0  0  0  0  0999 V2000
   25.3010    9.4440   -6.8590 C   0  0  0  0  0  0  0  0  0  0  0  0
   25.2720    8.0750   -6.6000 C   0  0  0  0  0  0  0  0  0  0  0  0
   25.9620    7.1970   -7.4230 N   0  0  0  0  0  0  0  0  0  0  0  0
   26.6880    7.6860   -8.5070 C   0  0  0  0  0  0  0  0  0  0  0  0
   24.7400   10.4400   -6.2310 O   0  0  0  0  0  0  0  0  0  0  0  0
   26.7190    9.0500   -8.7630 C   0  0  0  0  0  0  0  0  0  0  0  0
   26.0280    9.9290   -7.9410 C   0  0  0  0  0  0  0  0  0  0  0  0
   27.4270    7.0410   -9.4300 N   0  0  0  0  0  0  0  0  0  0  0  0
   27.9480    7.9700  -10.3030 C   0  0  0  0  0  0  0  0  0  0  0  0
   27.4110    9.1570   -9.7600 C   0  0  0  0  0  0  0  0  0  0  0  0
   25.6510   11.1670   -5.4140 C   0  0  1  0  0  0  0  0  0  0  0  0
   28.7540    7.9700  -11.4160 N   0  0  0  0  0  0  0  0  0  0  0  0
   29.0670    9.1360  -12.0320 C   0  0  0  0  0  0  0  0  0  0  0  0
   30.3970    9.5910  -12.2130 N   0  0  0  0  0  0  0  0  0  0  0  0
   30.3440   10.8170  -12.8900 C   0  0  0  0  0  0  0  0  0  0  0  0
   28.9410   10.9580  -13.0460 C   0  0  0  0  0  0  0  0  0  0  0  0
   28.1860    9.9570  -12.5440 N   0  0  0  0  0  0  0  0  0  0  0  0
   26.7150    9.8610  -12.6110 C   0  0  1  0  0  0  0  0  0  0  0  0
   24.5000    7.5560   -5.4430 C   0  0  0  0  0  0  0  0  0  0  0  0
   24.0650    6.4070   -5.4220 O   0  0  0  0  0  0  0  0  0  0  0  0
   24.2040    8.3810   -4.2960 N   0  0  0  0  0  0  0  0  0  0  0  0
   23.6990    7.9310   -3.1340 C   0  0  0  0  0  0  0  0  0  0  0  0
   22.6880    8.6660   -2.5280 N   0  0  0  0  0  0  0  0  0  0  0  0
   22.1370    8.2340   -1.3270 C   0  0  0  0  0  0  0  0  0  0  0  0
   22.5990    7.0660   -0.7340 C   0  0  0  0  0  0  0  0  0  0  0  0
   23.6100    6.3300   -1.3400 C   0  0  0  0  0  0  0  0  0  0  0  0
   24.1380    6.7480   -2.5550 C   0  0  0  0  0  0  0  0  0  0  0  0
   24.1340    5.0780   -0.6780 C   0  0  1  0  0  0  0  0  0  0  0  0
   25.0870    5.9960   -3.1810 O   0  0  0  0  0  0  0  0  0  0  0  0
   25.9377    6.1850   -7.2330 H   0  0  0  0  0  0  0  0  0  0  0  0
   26.0552   11.0095   -8.1452 H   0  0  0  0  0  0  0  0  0  0  0  0
   27.6090   10.1375  -10.2177 H   0  0  0  0  0  0  0  0  0  0  0  0
   25.4204   10.9830   -4.3543 H   0  0  0  0  0  0  0  0  0  0  0  0
   26.6785   10.8379   -5.6281 H   0  0  0  0  0  0  0  0  0  0  0  0
   25.5581   12.2419   -5.6281 H   0  0  0  0  0  0  0  0  0  0  0  0
   29.1216    7.0807  -11.7834 H   0  0  0  0  0  0  0  0  0  0  0  0
   31.1597   11.4820  -13.2100 H   0  0  0  0  0  0  0  0  0  0  0  0
   28.4948   11.8304  -13.5459 H   0  0  0  0  0  0  0  0  0  0  0  0
   26.3025    9.8341  -11.5916 H   0  0  0  0  0  0  0  0  0  0  0  0
   26.3145   10.7349  -13.1457 H   0  0  0  0  0  0  0  0  0  0  0  0
   26.4315    8.9424  -13.1457 H   0  0  0  0  0  0  0  0  0  0  0  0
   24.3940    9.3904   -4.3736 H   0  0  0  0  0  0  0  0  0  0  0  0
   21.3365    8.8162   -0.8471 H   0  0  0  0  0  0  0  0  0  0  0  0
   22.1641    6.7232    0.2164 H   0  0  0  0  0  0  0  0  0  0  0  0
   24.0857    5.1934    0.4149 H   0  0  0  0  0  0  0  0  0  0  0  0
   23.5205    4.2175   -0.9833 H   0  0  0  0  0  0  0  0  0  0  0  0
   25.1775    4.9111   -0.9833 H   0  0  0  0  0  0  0  0  0  0  0  0
   25.4010    5.1522   -2.7692 H   0  0  0  0  0  0  0  0  0  0  0  0
  1  7  1  0
  1  2  2  0
  1  5  1  0
  2  3  1  0
  2 19  1  0
  3  4  1  0
  4  8  2  0
  4  6  1  0
  6 10  1  0
  6  7  2  0
  8  9  1  0
  9 12  1  0
  9 10  2  0
 19 20  2  0
 19 21  1  0
 21 22  1  0
 22 27  1  0
 22 23  2  0
 23 24  1  0
 24 25  2  0
 25 26  1  0
 26 27  2  0
 26 28  1  0
 27 29  1  0
 12 13  1  0
 13 17  1  0
 13 14  2  0
 14 15  1  0
 15 16  2  0
 16 17  1  0
 17 18  1  0
  5 11  1  0
  3 30  1  0
  7 31  1  0
 10 32  1  0
 11 33  1  1
 11 34  1  0
 11 35  1  0
 12 36  1  0
 15 37  1  0
 16 38  1  0
 18 39  1  1
 18 40  1  0
 18 41  1  0
 21 42  1  0
 24 43  1  0
 25 44  1  0
 28 45  1  1
 28 46  1  0
 28 47  1  0
 29 48  1  0
M  END
>  <Pose ID>  (76)
81

>  <Score>  (76)
-6.927395343780518

>  <smiles>  (76)
COc1cc2cc(Nc3nccn3C)nc-2[nH]c1C(=O)Nc1nccc(C)c1O

$$$$

     RDKit          3D

 44 47  0  0  0  0  0  0  0  0999 V2000
   25.3030    9.5110   -6.8950 C   0  0  0  0  0  0  0  0  0  0  0  0
   25.1640    8.1440   -6.6690 C   0  0  0  0  0  0  0  0  0  0  0  0
   25.8090    7.2330   -7.4930 N   0  0  0  0  0  0  0  0  0  0  0  0
   26.6010    7.6860   -8.5450 C   0  0  0  0  0  0  0  0  0  0  0  0
   24.8030   10.5360   -6.2620 O   0  0  0  0  0  0  0  0  0  0  0  0
   26.7430    9.0490   -8.7690 C   0  0  0  0  0  0  0  0  0  0  0  0
   26.0960    9.9610   -7.9480 C   0  0  0  0  0  0  0  0  0  0  0  0
   27.3130    7.0070   -9.4620 N   0  0  0  0  0  0  0  0  0  0  0  0
   27.9270    7.9110  -10.3010 C   0  0  0  0  0  0  0  0  0  0  0  0
   27.4680    9.1240   -9.7460 C   0  0  0  0  0  0  0  0  0  0  0  0
   25.7420   11.1750   -5.4050 C   0  0  1  0  0  0  0  0  0  0  0  0
   28.7620    7.8720  -11.3910 N   0  0  0  0  0  0  0  0  0  0  0  0
   29.1810    9.0230  -11.9730 C   0  0  0  0  0  0  0  0  0  0  0  0
   30.5440    9.3780  -12.1090 N   0  0  0  0  0  0  0  0  0  0  0  0
   30.6040   10.6170  -12.7600 C   0  0  0  0  0  0  0  0  0  0  0  0
   29.2220   10.8700  -12.9470 C   0  0  0  0  0  0  0  0  0  0  0  0
   28.3770    9.9190  -12.4900 N   0  0  0  0  0  0  0  0  0  0  0  0
   26.9060    9.9370  -12.5990 C   0  0  1  0  0  0  0  0  0  0  0  0
   24.3460    7.9540   -5.5840 N   0  0  0  0  0  0  0  0  0  0  0  0
   24.0410    6.4960   -5.1390 C   0  0  1  0  0  0  0  0  0  0  0  0
   22.8840    6.4860   -4.1040 C   0  0  0  0  0  0  0  0  0  0  0  0
   21.9720    5.4370   -4.1230 N   0  0  0  0  0  0  0  0  0  0  0  0
   20.9240    5.4100   -3.2090 C   0  0  0  0  0  0  0  0  0  0  0  0
   22.7470    7.5080   -3.1730 C   0  0  0  0  0  0  0  0  0  0  0  0
   20.7890    6.4330   -2.2780 N   0  0  0  0  0  0  0  0  0  0  0  0
   21.7000    7.4780   -2.2630 C   0  0  0  0  0  0  0  0  0  0  0  0
   25.7021    6.2222   -7.3267 H   0  0  0  0  0  0  0  0  0  0  0  0
   26.2093   11.0401   -8.1287 H   0  0  0  0  0  0  0  0  0  0  0  0
   27.7521   10.0956  -10.1764 H   0  0  0  0  0  0  0  0  0  0  0  0
   25.4676   10.9882   -4.3563 H   0  0  0  0  0  0  0  0  0  0  0  0
   26.7475   10.7729   -5.5981 H   0  0  0  0  0  0  0  0  0  0  0  0
   25.7369   12.2579   -5.5981 H   0  0  0  0  0  0  0  0  0  0  0  0
   29.0712    6.9647  -11.7679 H   0  0  0  0  0  0  0  0  0  0  0  0
   31.4769   11.2224  -13.0454 H   0  0  0  0  0  0  0  0  0  0  0  0
   28.8585   11.7862  -13.4352 H   0  0  0  0  0  0  0  0  0  0  0  0
   26.4637    9.9424  -11.5918 H   0  0  0  0  0  0  0  0  0  0  0  0
   26.5897   10.8391  -13.1432 H   0  0  0  0  0  0  0  0  0  0  0  0
   26.5677    9.0429  -13.1432 H   0  0  0  0  0  0  0  0  0  0  0  0
   23.9446    8.7561   -5.0777 H   0  0  0  0  0  0  0  0  0  0  0  0
   23.7491    5.9010   -6.0169 H   0  0  0  0  0  0  0  0  0  0  0  0
   24.9413    6.0643   -4.6773 H   0  0  0  0  0  0  0  0  0  0  0  0
   20.2026    4.5797   -3.2230 H   0  0  0  0  0  0  0  0  0  0  0  0
   23.4671    8.3394   -3.1573 H   0  0  0  0  0  0  0  0  0  0  0  0
   21.5922    8.2874   -1.5260 H   0  0  0  0  0  0  0  0  0  0  0  0
  1  7  1  0
  1  2  2  0
  1  5  1  0
  2  3  1  0
  2 19  1  0
  3  4  1  0
  4  8  2  0
  4  6  1  0
  6 10  1  0
  6  7  2  0
  8  9  1  0
  9 12  1  0
  9 10  2  0
 12 13  1  0
 13 17  1  0
 13 14  2  0
 14 15  1  0
 15 16  2  0
 16 17  1  0
 17 18  1  0
  5 11  1  0
 19 20  1  0
 20 21  1  0
 21 22  2  0
 21 24  1  0
 22 23  1  0
 23 25  2  0
 24 26  2  0
 25 26  1  0
  3 27  1  0
  7 28  1  0
 10 29  1  0
 11 30  1  1
 11 31  1  0
 11 32  1  0
 12 33  1  0
 15 34  1  0
 16 35  1  0
 18 36  1  1
 18 37  1  0
 18 38  1  0
 19 39  1  0
 20 40  1  6
 20 41  1  0
 23 42  1  0
 24 43  1  0
 26 44  1  0
M  END
>  <Pose ID>  (77)
112

>  <Score>  (77)
-6.926011085510254

>  <smiles>  (77)
COc1cc2cc(Nc3nccn3C)nc-2[nH]c1NCc1ccncn1

$$$$

     RDKit          3D

 46 49  0  0  0  0  0  0  0  0999 V2000
   25.1280    9.8610   -6.6320 C   0  0  0  0  0  0  0  0  0  0  0  0
   24.9270    8.5500   -6.2110 C   0  0  0  0  0  0  0  0  0  0  0  0
   25.5340    7.5010   -6.8890 N   0  0  0  0  0  0  0  0  0  0  0  0
   26.3420    7.7620   -7.9930 C   0  0  0  0  0  0  0  0  0  0  0  0
   24.6730   10.9860   -6.1550 O   0  0  0  0  0  0  0  0  0  0  0  0
   26.5420    9.0690   -8.4140 C   0  0  0  0  0  0  0  0  0  0  0  0
   25.9380   10.1210   -7.7320 C   0  0  0  0  0  0  0  0  0  0  0  0
   27.0250    6.9260   -8.7980 N   0  0  0  0  0  0  0  0  0  0  0  0
   27.6750    7.6740   -9.7540 C   0  0  0  0  0  0  0  0  0  0  0  0
   27.2710    8.9730   -9.3840 C   0  0  0  0  0  0  0  0  0  0  0  0
   25.6390   11.7020   -5.3950 C   0  0  1  0  0  0  0  0  0  0  0  0
   28.5070    7.4400  -10.8230 N   0  0  0  0  0  0  0  0  0  0  0  0
   28.9770    8.4740  -11.5620 C   0  0  0  0  0  0  0  0  0  0  0  0
   30.3550    8.7450  -11.7410 N   0  0  0  0  0  0  0  0  0  0  0  0
   30.4660    9.8720  -12.5650 C   0  0  0  0  0  0  0  0  0  0  0  0
   29.0970   10.1560  -12.7950 C   0  0  0  0  0  0  0  0  0  0  0  0
   28.2120    9.3180  -12.2080 N   0  0  0  0  0  0  0  0  0  0  0  0
   26.7420    9.3840  -12.3300 C   0  0  1  0  0  0  0  0  0  0  0  0
   24.1120    8.2880   -5.0940 C   0  0  0  0  0  0  0  0  0  0  0  0
   23.0740    7.3460   -4.9750 C   0  0  0  0  0  0  0  0  0  0  0  0
   24.1340    8.9700   -3.9820 N   0  0  0  0  0  0  0  0  0  0  0  0
   22.5540    7.4840   -3.6250 C   0  0  0  0  0  0  0  0  0  0  0  0
   23.2140    8.5650   -3.1940 N   0  0  0  0  0  0  0  0  0  0  0  0
   22.9930    9.1950   -1.8680 C   0  0  1  0  0  0  0  0  0  0  0  0
   22.6420    6.4780   -5.9350 O   0  0  0  0  0  0  0  0  0  0  0  0
   22.6710    8.2850   -0.7370 C   0  0  0  0  0  0  0  0  0  0  0  0
   23.7330    7.5510   -0.2320 O   0  0  0  0  0  0  0  0  0  0  0  0
   21.4610    8.2440   -0.2790 N   0  0  0  0  0  0  0  0  0  0  0  0
   25.3868    6.5309   -6.5757 H   0  0  0  0  0  0  0  0  0  0  0  0
   26.1012   11.1573   -8.0628 H   0  0  0  0  0  0  0  0  0  0  0  0
   27.5996    9.8595   -9.9463 H   0  0  0  0  0  0  0  0  0  0  0  0
   25.4428   11.5566   -4.3224 H   0  0  0  0  0  0  0  0  0  0  0  0
   26.6454   11.3300   -5.6374 H   0  0  0  0  0  0  0  0  0  0  0  0
   25.5758   12.7731   -5.6374 H   0  0  0  0  0  0  0  0  0  0  0  0
   28.7742    6.4747  -11.0632 H   0  0  0  0  0  0  0  0  0  0  0  0
   31.3641   10.3911  -12.9310 H   0  0  0  0  0  0  0  0  0  0  0  0
   28.7735   11.0063  -13.4133 H   0  0  0  0  0  0  0  0  0  0  0  0
   26.2914    9.4042  -11.3268 H   0  0  0  0  0  0  0  0  0  0  0  0
   26.4600   10.2957  -12.8771 H   0  0  0  0  0  0  0  0  0  0  0  0
   26.3795    8.5012  -12.8771 H   0  0  0  0  0  0  0  0  0  0  0  0
   21.8141    6.8641   -3.0975 H   0  0  0  0  0  0  0  0  0  0  0  0
   23.9094    9.7429   -1.6034 H   0  0  0  0  0  0  0  0  0  0  0  0
   22.0992    9.8236   -1.9942 H   0  0  0  0  0  0  0  0  0  0  0  0
   21.8981    5.8546   -5.7401 H   0  0  0  0  0  0  0  0  0  0  0  0
   21.2277    7.6170    0.5042 H   0  0  0  0  0  0  0  0  0  0  0  0
   20.7314    8.8384   -0.6977 H   0  0  0  0  0  0  0  0  0  0  0  0
  1  7  1  0
  1  2  2  0
  1  5  1  0
  2  3  1  0
  2 19  1  0
  3  4  1  0
  4  8  2  0
  4  6  1  0
  6 10  1  0
  6  7  2  0
  8  9  1  0
  9 12  1  0
  9 10  2  0
 12 13  1  0
 13 17  1  0
 13 14  2  0
 14 15  1  0
 15 16  2  0
 16 17  1  0
 17 18  1  0
 19 20  1  0
 19 21  2  0
 20 25  1  0
 20 22  2  0
 21 23  1  0
 22 23  1  0
 23 24  1  0
 24 26  1  0
 26 28  1  0
 26 27  2  0
  5 11  1  0
  3 29  1  0
  7 30  1  0
 10 31  1  0
 11 32  1  1
 11 33  1  0
 11 34  1  0
 12 35  1  0
 15 36  1  0
 16 37  1  0
 18 38  1  1
 18 39  1  0
 18 40  1  0
 22 41  1  0
 24 42  1  1
 24 43  1  0
 25 44  1  0
 28 45  1  0
 28 46  1  0
M  END
>  <Pose ID>  (78)
4

>  <Score>  (78)
-6.913424015045166

>  <smiles>  (78)
COc1cc2cc(Nc3nccn3C)nc-2[nH]c1-c1nn(CC(N)=O)cc1O

$$$$

     RDKit          3D

 43 46  0  0  0  0  0  0  0  0999 V2000
   25.2190    9.3840   -6.9550 C   0  0  0  0  0  0  0  0  0  0  0  0
   25.1820    8.0140   -6.7130 C   0  0  0  0  0  0  0  0  0  0  0  0
   25.8970    7.1440   -7.5240 N   0  0  0  0  0  0  0  0  0  0  0  0
   26.6540    7.6460   -8.5800 C   0  0  0  0  0  0  0  0  0  0  0  0
   24.6400   10.3750   -6.3340 O   0  0  0  0  0  0  0  0  0  0  0  0
   26.6940    9.0120   -8.8180 C   0  0  0  0  0  0  0  0  0  0  0  0
   25.9800    9.8810   -8.0090 C   0  0  0  0  0  0  0  0  0  0  0  0
   27.4210    7.0110   -9.4860 N   0  0  0  0  0  0  0  0  0  0  0  0
   27.9670    7.9500  -10.3330 C   0  0  0  0  0  0  0  0  0  0  0  0
   27.4160    9.1300   -9.7930 C   0  0  0  0  0  0  0  0  0  0  0  0
   25.5270   11.0910   -5.4800 C   0  0  1  0  0  0  0  0  0  0  0  0
   28.8080    7.9620  -11.4210 N   0  0  0  0  0  0  0  0  0  0  0  0
   29.1410    9.1330  -12.0150 C   0  0  0  0  0  0  0  0  0  0  0  0
   30.4750    9.5880  -12.1500 N   0  0  0  0  0  0  0  0  0  0  0  0
   30.4420   10.8220  -12.8150 C   0  0  0  0  0  0  0  0  0  0  0  0
   29.0460   10.9680  -13.0100 C   0  0  0  0  0  0  0  0  0  0  0  0
   28.2730    9.9610  -12.5440 N   0  0  0  0  0  0  0  0  0  0  0  0
   26.8050    9.8680  -12.6590 C   0  0  1  0  0  0  0  0  0  0  0  0
   24.4380    7.5250   -5.6740 N   0  0  0  0  0  0  0  0  0  0  0  0
   24.5310    6.4420   -4.8450 C   0  0  0  0  0  0  0  0  0  0  0  0
   23.5780    6.4650   -4.0060 C   0  0  0  0  0  0  0  0  0  0  0  0
   23.3220    8.2010   -5.2350 C   0  0  0  0  0  0  0  0  0  0  0  0
   22.8570    7.4130   -4.2110 C   0  0  0  0  0  0  0  0  0  0  0  0
   23.3740    5.4520   -2.9070 C   0  0  1  0  0  0  0  0  0  0  0  0
   23.3820    4.1090   -3.4470 O   0  0  0  0  0  0  0  0  0  0  0  0
   25.8680    6.1300   -7.3456 H   0  0  0  0  0  0  0  0  0  0  0  0
   26.0146   10.9638   -8.1997 H   0  0  0  0  0  0  0  0  0  0  0  0
   27.6286   10.1155  -10.2329 H   0  0  0  0  0  0  0  0  0  0  0  0
   25.2715   10.8847   -4.4302 H   0  0  0  0  0  0  0  0  0  0  0  0
   26.5614   10.7717   -5.6752 H   0  0  0  0  0  0  0  0  0  0  0  0
   25.4331   12.1695   -5.6752 H   0  0  0  0  0  0  0  0  0  0  0  0
   29.1865    7.0763  -11.7860 H   0  0  0  0  0  0  0  0  0  0  0  0
   31.2675   11.4891  -13.1040 H   0  0  0  0  0  0  0  0  0  0  0  0
   28.6166   11.8483  -13.5107 H   0  0  0  0  0  0  0  0  0  0  0  0
   26.3595    9.8398  -11.6536 H   0  0  0  0  0  0  0  0  0  0  0  0
   26.4237   10.7438  -13.2045 H   0  0  0  0  0  0  0  0  0  0  0  0
   26.5373    8.9511  -13.2045 H   0  0  0  0  0  0  0  0  0  0  0  0
   25.3118    5.6689   -4.8968 H   0  0  0  0  0  0  0  0  0  0  0  0
   22.9034    9.1452   -5.6134 H   0  0  0  0  0  0  0  0  0  0  0  0
   21.9372    7.6201   -3.6444 H   0  0  0  0  0  0  0  0  0  0  0  0
   24.1840    5.5503   -2.1693 H   0  0  0  0  0  0  0  0  0  0  0  0
   22.4008    5.6372   -2.4289 H   0  0  0  0  0  0  0  0  0  0  0  0
   23.3859    3.4546   -2.7041 H   0  0  0  0  0  0  0  0  0  0  0  0
  1  7  1  0
  1  2  2  0
  1  5  1  0
  2  3  1  0
  2 19  1  0
  3  4  1  0
  4  8  2  0
  4  6  1  0
  6 10  1  0
  6  7  2  0
  8  9  1  0
  9 12  1  0
  9 10  2  0
 12 13  1  0
 13 17  1  0
 13 14  2  0
 14 15  1  0
 15 16  2  0
 16 17  1  0
 17 18  1  0
 19 22  1  0
 19 20  1  0
 20 21  2  0
 21 23  1  0
 21 24  1  0
 22 23  2  0
 24 25  1  0
  5 11  1  0
  3 26  1  0
  7 27  1  0
 10 28  1  0
 11 29  1  1
 11 30  1  0
 11 31  1  0
 12 32  1  0
 15 33  1  0
 16 34  1  0
 18 35  1  1
 18 36  1  0
 18 37  1  0
 20 38  1  0
 22 39  1  0
 23 40  1  0
 24 41  1  1
 24 42  1  0
 25 43  1  0
M  END
>  <Pose ID>  (79)
110

>  <Score>  (79)
-6.9026947021484375

>  <smiles>  (79)
COc1cc2cc(Nc3nccn3C)nc-2[nH]c1-n1ccc(CO)c1

$$$$

     RDKit          3D

 46 49  0  0  0  0  0  0  0  0999 V2000
   25.0810    9.2400   -7.0250 C   0  0  0  0  0  0  0  0  0  0  0  0
   24.9690    7.8660   -6.8300 C   0  0  0  0  0  0  0  0  0  0  0  0
   25.6750    6.9880   -7.6430 N   0  0  0  0  0  0  0  0  0  0  0  0
   26.4930    7.4860   -8.6540 C   0  0  0  0  0  0  0  0  0  0  0  0
   24.5250   10.2370   -6.3900 O   0  0  0  0  0  0  0  0  0  0  0  0
   26.6060    8.8550   -8.8450 C   0  0  0  0  0  0  0  0  0  0  0  0
   25.9030    9.7310   -8.0330 C   0  0  0  0  0  0  0  0  0  0  0  0
   27.2650    6.8440   -9.5520 N   0  0  0  0  0  0  0  0  0  0  0  0
   27.8860    7.7830  -10.3460 C   0  0  0  0  0  0  0  0  0  0  0  0
   27.3680    8.9710   -9.7890 C   0  0  0  0  0  0  0  0  0  0  0  0
   25.4110   10.8830   -5.4830 C   0  0  1  0  0  0  0  0  0  0  0  0
   28.7640    7.7890  -11.4030 N   0  0  0  0  0  0  0  0  0  0  0  0
   29.1730    8.9620  -11.9460 C   0  0  0  0  0  0  0  0  0  0  0  0
   30.5300    9.3570  -12.0170 N   0  0  0  0  0  0  0  0  0  0  0  0
   30.5800   10.6120  -12.6430 C   0  0  0  0  0  0  0  0  0  0  0  0
   29.2020   10.8300  -12.8810 C   0  0  0  0  0  0  0  0  0  0  0  0
   28.3660    9.8460  -12.4770 N   0  0  0  0  0  0  0  0  0  0  0  0
   26.9000    9.8260  -12.6470 C   0  0  1  0  0  0  0  0  0  0  0  0
   24.1650    7.3780   -5.8310 N   0  0  0  0  0  0  0  0  0  0  0  0
   23.3920    8.1890   -5.0610 C   0  0  0  0  0  0  0  0  0  0  0  0
   23.7390    8.5250   -3.7590 C   0  0  0  0  0  0  0  0  0  0  0  0
   22.9260    9.3760   -3.0200 N   0  0  0  0  0  0  0  0  0  0  0  0
   21.7660    9.8900   -3.5840 C   0  0  0  0  0  0  0  0  0  0  0  0
   21.4180    9.5530   -4.8870 C   0  0  0  0  0  0  0  0  0  0  0  0
   22.2380    8.6910   -5.6230 C   0  0  0  0  0  0  0  0  0  0  0  0
   21.0370   10.6520   -2.9220 O   0  0  0  0  0  0  0  0  0  0  0  0
   23.0560    9.8460   -1.6660 C   0  0  1  0  0  0  0  0  0  0  0  0
   25.5936    5.9715   -7.4983 H   0  0  0  0  0  0  0  0  0  0  0  0
   25.9956   10.8163   -8.1863 H   0  0  0  0  0  0  0  0  0  0  0  0
   27.6400    9.9589  -10.1892 H   0  0  0  0  0  0  0  0  0  0  0  0
   25.1052   10.6600   -4.4502 H   0  0  0  0  0  0  0  0  0  0  0  0
   26.4355   10.5185   -5.6489 H   0  0  0  0  0  0  0  0  0  0  0  0
   25.3772   11.9699   -5.6489 H   0  0  0  0  0  0  0  0  0  0  0  0
   29.1130    6.8982  -11.7845 H   0  0  0  0  0  0  0  0  0  0  0  0
   31.4459   11.2471  -12.8814 H   0  0  0  0  0  0  0  0  0  0  0  0
   28.8325   11.7456  -13.3659 H   0  0  0  0  0  0  0  0  0  0  0  0
   26.4164    9.8194  -11.6590 H   0  0  0  0  0  0  0  0  0  0  0  0
   26.5833   10.7199  -13.2043 H   0  0  0  0  0  0  0  0  0  0  0  0
   26.6078    8.9238  -13.2043 H   0  0  0  0  0  0  0  0  0  0  0  0
   24.1465    6.3627   -5.6586 H   0  0  0  0  0  0  0  0  0  0  0  0
   24.6579    8.1173   -3.3124 H   0  0  0  0  0  0  0  0  0  0  0  0
   20.5018    9.9624   -5.3374 H   0  0  0  0  0  0  0  0  0  0  0  0
   21.9615    8.4137   -6.6509 H   0  0  0  0  0  0  0  0  0  0  0  0
   22.8290    9.0253   -0.9696 H   0  0  0  0  0  0  0  0  0  0  0  0
   24.0848   10.1965   -1.4967 H   0  0  0  0  0  0  0  0  0  0  0  0
   22.3535   10.6754   -1.4967 H   0  0  0  0  0  0  0  0  0  0  0  0
  1  7  1  0
  1  2  2  0
  1  5  1  0
  2  3  1  0
  2 19  1  0
  3  4  1  0
  4  8  2  0
  4  6  1  0
  6 10  1  0
  6  7  2  0
  8  9  1  0
  9 12  1  0
  9 10  2  0
 12 13  1  0
 13 17  1  0
 13 14  2  0
 14 15  1  0
 15 16  2  0
 16 17  1  0
 17 18  1  0
  5 11  1  0
 19 20  1  0
 20 25  1  0
 20 21  2  0
 21 22  1  0
 22 23  1  0
 22 27  1  0
 23 24  1  0
 23 26  2  0
 24 25  2  0
  3 28  1  0
  7 29  1  0
 10 30  1  0
 11 31  1  1
 11 32  1  0
 11 33  1  0
 12 34  1  0
 15 35  1  0
 16 36  1  0
 18 37  1  1
 18 38  1  0
 18 39  1  0
 19 40  1  0
 21 41  1  0
 24 42  1  0
 25 43  1  0
 27 44  1  1
 27 45  1  0
 27 46  1  0
M  END
>  <Pose ID>  (80)
83

>  <Score>  (80)
-6.901113510131836

>  <smiles>  (80)
COc1cc2cc(Nc3nccn3C)nc-2[nH]c1Nc1ccc(=O)n(C)c1

$$$$

     RDKit          3D

 47 50  0  0  0  0  0  0  0  0999 V2000
   25.1550    9.3200   -6.8850 C   0  0  0  0  0  0  0  0  0  0  0  0
   25.0270    7.9490   -6.6670 C   0  0  0  0  0  0  0  0  0  0  0  0
   25.6900    7.0500   -7.4890 N   0  0  0  0  0  0  0  0  0  0  0  0
   26.4880    7.5190   -8.5310 C   0  0  0  0  0  0  0  0  0  0  0  0
   24.6360   10.3340   -6.2490 O   0  0  0  0  0  0  0  0  0  0  0  0
   26.6170    8.8840   -8.7460 C   0  0  0  0  0  0  0  0  0  0  0  0
   25.9540    9.7850   -7.9250 C   0  0  0  0  0  0  0  0  0  0  0  0
   27.2180    6.8520   -9.4450 N   0  0  0  0  0  0  0  0  0  0  0  0
   27.8320    7.7670  -10.2710 C   0  0  0  0  0  0  0  0  0  0  0  0
   27.3520    8.9720   -9.7140 C   0  0  0  0  0  0  0  0  0  0  0  0
   25.5610   10.9770   -5.3780 C   0  0  1  0  0  0  0  0  0  0  0  0
   28.6780    7.7440  -11.3530 N   0  0  0  0  0  0  0  0  0  0  0  0
   29.0900    8.9020  -11.9230 C   0  0  0  0  0  0  0  0  0  0  0  0
   30.4530    9.2730  -12.0410 N   0  0  0  0  0  0  0  0  0  0  0  0
   30.5050   10.5180  -12.6850 C   0  0  0  0  0  0  0  0  0  0  0  0
   29.1220   10.7560  -12.8870 C   0  0  0  0  0  0  0  0  0  0  0  0
   28.2840    9.7930  -12.4430 N   0  0  0  0  0  0  0  0  0  0  0  0
   26.8140    9.7970  -12.5670 C   0  0  1  0  0  0  0  0  0  0  0  0
   24.1800    7.4520   -5.5550 C   0  0  0  0  0  0  0  0  0  0  0  0
   23.6700    6.3350   -5.5830 O   0  0  0  0  0  0  0  0  0  0  0  0
   23.8940    8.2640   -4.3950 N   0  0  0  0  0  0  0  0  0  0  0  0
   23.3170    7.8180   -3.2660 C   0  0  0  0  0  0  0  0  0  0  0  0
   22.3330    8.6010   -2.6770 N   0  0  0  0  0  0  0  0  0  0  0  0
   21.7100    8.1750   -1.5100 C   0  0  0  0  0  0  0  0  0  0  0  0
   22.0710    6.9630   -0.9340 C   0  0  0  0  0  0  0  0  0  0  0  0
   23.0540    6.1780   -1.5240 C   0  0  0  0  0  0  0  0  0  0  0  0
   23.6550    6.5930   -2.7070 C   0  0  0  0  0  0  0  0  0  0  0  0
   23.4700    4.8770   -0.8810 C   0  0  1  0  0  0  0  0  0  0  0  0
   21.2690    6.4130    0.5680 Cl  0  0  0  0  0  0  0  0  0  0  0  0
   25.5928    6.0371   -7.3296 H   0  0  0  0  0  0  0  0  0  0  0  0
   26.0600   10.8664   -8.0962 H   0  0  0  0  0  0  0  0  0  0  0  0
   27.6297    9.9492  -10.1359 H   0  0  0  0  0  0  0  0  0  0  0  0
   25.2783   10.7805   -4.3333 H   0  0  0  0  0  0  0  0  0  0  0  0
   26.5723   10.5861   -5.5640 H   0  0  0  0  0  0  0  0  0  0  0  0
   25.5470   12.0611   -5.5640 H   0  0  0  0  0  0  0  0  0  0  0  0
   29.0005    6.8425  -11.7326 H   0  0  0  0  0  0  0  0  0  0  0  0
   31.3738   11.1356  -12.9567 H   0  0  0  0  0  0  0  0  0  0  0  0
   28.7531   11.6697  -13.3758 H   0  0  0  0  0  0  0  0  0  0  0  0
   26.3615    9.7982  -11.5644 H   0  0  0  0  0  0  0  0  0  0  0  0
   26.4947   10.6960  -13.1145 H   0  0  0  0  0  0  0  0  0  0  0  0
   26.4898    8.8997  -13.1145 H   0  0  0  0  0  0  0  0  0  0  0  0
   24.1518    9.2604   -4.4362 H   0  0  0  0  0  0  0  0  0  0  0  0
   20.9320    8.7966   -1.0428 H   0  0  0  0  0  0  0  0  0  0  0  0
   24.3989    5.9502   -3.2004 H   0  0  0  0  0  0  0  0  0  0  0  0
   23.4365    4.9818    0.2135 H   0  0  0  0  0  0  0  0  0  0  0  0
   22.7828    4.0771   -1.1940 H   0  0  0  0  0  0  0  0  0  0  0  0
   24.4938    4.6242   -1.1940 H   0  0  0  0  0  0  0  0  0  0  0  0
  1  7  1  0
  1  2  2  0
  1  5  1  0
  2  3  1  0
  2 19  1  0
  3  4  1  0
  4  8  2  0
  4  6  1  0
  6 10  1  0
  6  7  2  0
  8  9  1  0
  9 12  1  0
  9 10  2  0
 19 20  2  0
 19 21  1  0
 21 22  1  0
 22 27  1  0
 22 23  2  0
 23 24  1  0
 24 25  2  0
 25 26  1  0
 25 29  1  0
 26 27  2  0
 26 28  1  0
 12 13  1  0
 13 17  1  0
 13 14  2  0
 14 15  1  0
 15 16  2  0
 16 17  1  0
 17 18  1  0
  5 11  1  0
  3 30  1  0
  7 31  1  0
 10 32  1  0
 11 33  1  1
 11 34  1  0
 11 35  1  0
 12 36  1  0
 15 37  1  0
 16 38  1  0
 18 39  1  1
 18 40  1  0
 18 41  1  0
 21 42  1  0
 24 43  1  0
 27 44  1  0
 28 45  1  1
 28 46  1  0
 28 47  1  0
M  END
>  <Pose ID>  (81)
80

>  <Score>  (81)
-6.888088703155518

>  <smiles>  (81)
COc1cc2cc(Nc3nccn3C)nc-2[nH]c1C(=O)Nc1cc(C)c(Cl)cn1

$$$$

     RDKit          3D

 44 47  0  0  0  0  0  0  0  0999 V2000
   25.1970    9.3300   -6.9090 C   0  0  0  0  0  0  0  0  0  0  0  0
   25.0810    7.9570   -6.7030 C   0  0  0  0  0  0  0  0  0  0  0  0
   25.7480    7.0700   -7.5350 N   0  0  0  0  0  0  0  0  0  0  0  0
   26.5380    7.5540   -8.5760 C   0  0  0  0  0  0  0  0  0  0  0  0
   24.6720   10.3350   -6.2630 O   0  0  0  0  0  0  0  0  0  0  0  0
   26.6550    8.9220   -8.7800 C   0  0  0  0  0  0  0  0  0  0  0  0
   25.9870    9.8100   -7.9490 C   0  0  0  0  0  0  0  0  0  0  0  0
   27.2700    6.9010   -9.4980 N   0  0  0  0  0  0  0  0  0  0  0  0
   27.8720    7.8280  -10.3190 C   0  0  0  0  0  0  0  0  0  0  0  0
   27.3850    9.0240   -9.7500 C   0  0  0  0  0  0  0  0  0  0  0  0
   25.5950   10.9780   -5.3910 C   0  0  1  0  0  0  0  0  0  0  0  0
   28.7140    7.8210  -11.4050 N   0  0  0  0  0  0  0  0  0  0  0  0
   29.1140    8.9870  -11.9670 C   0  0  0  0  0  0  0  0  0  0  0  0
   30.4730    9.3710  -12.0880 N   0  0  0  0  0  0  0  0  0  0  0  0
   30.5120   10.6210  -12.7210 C   0  0  0  0  0  0  0  0  0  0  0  0
   29.1260   10.8490  -12.9160 C   0  0  0  0  0  0  0  0  0  0  0  0
   28.2980    9.8760  -12.4760 N   0  0  0  0  0  0  0  0  0  0  0  0
   26.8280    9.8680  -12.5940 C   0  0  1  0  0  0  0  0  0  0  0  0
   24.2430    7.4430   -5.5910 C   0  0  0  0  0  0  0  0  0  0  0  0
   23.7430    6.3210   -5.6260 O   0  0  0  0  0  0  0  0  0  0  0  0
   23.9560    8.2420   -4.4240 N   0  0  0  0  0  0  0  0  0  0  0  0
   23.3870    7.7820   -3.2960 C   0  0  0  0  0  0  0  0  0  0  0  0
   22.3990    8.5520   -2.6960 N   0  0  0  0  0  0  0  0  0  0  0  0
   21.7840    8.1110   -1.5300 C   0  0  0  0  0  0  0  0  0  0  0  0
   22.1580    6.8980   -0.9660 C   0  0  0  0  0  0  0  0  0  0  0  0
   23.1460    6.1260   -1.5660 C   0  0  0  0  0  0  0  0  0  0  0  0
   23.7380    6.5560   -2.7480 C   0  0  0  0  0  0  0  0  0  0  0  0
   25.6595    6.0550   -7.3836 H   0  0  0  0  0  0  0  0  0  0  0  0
   26.0820   10.8936   -8.1124 H   0  0  0  0  0  0  0  0  0  0  0  0
   27.6532   10.0069  -10.1648 H   0  0  0  0  0  0  0  0  0  0  0  0
   25.3114   10.7805   -4.3467 H   0  0  0  0  0  0  0  0  0  0  0  0
   26.6068   10.5883   -5.5762 H   0  0  0  0  0  0  0  0  0  0  0  0
   25.5801   12.0622   -5.5762 H   0  0  0  0  0  0  0  0  0  0  0  0
   29.0424    6.9254  -11.7934 H   0  0  0  0  0  0  0  0  0  0  0  0
   31.3745   11.2482  -12.9905 H   0  0  0  0  0  0  0  0  0  0  0  0
   28.7476   11.7632  -13.3967 H   0  0  0  0  0  0  0  0  0  0  0  0
   26.3795    9.8656  -11.5896 H   0  0  0  0  0  0  0  0  0  0  0  0
   26.4991   10.7644  -13.1402 H   0  0  0  0  0  0  0  0  0  0  0  0
   26.5089    8.9681  -13.1402 H   0  0  0  0  0  0  0  0  0  0  0  0
   24.2061    9.2406   -4.4578 H   0  0  0  0  0  0  0  0  0  0  0  0
   21.0023    8.7217   -1.0547 H   0  0  0  0  0  0  0  0  0  0  0  0
   21.6718    6.5479   -0.0435 H   0  0  0  0  0  0  0  0  0  0  0  0
   23.4588    5.1768   -1.1065 H   0  0  0  0  0  0  0  0  0  0  0  0
   24.4855    5.9239   -3.2496 H   0  0  0  0  0  0  0  0  0  0  0  0
  1  7  1  0
  1  2  2  0
  1  5  1  0
  2  3  1  0
  2 19  1  0
  3  4  1  0
  4  8  2  0
  4  6  1  0
  6 10  1  0
  6  7  2  0
  8  9  1  0
  9 12  1  0
  9 10  2  0
 19 20  2  0
 19 21  1  0
 21 22  1  0
 22 27  1  0
 22 23  2  0
 23 24  1  0
 24 25  2  0
 25 26  1  0
 26 27  2  0
 12 13  1  0
 13 17  1  0
 13 14  2  0
 14 15  1  0
 15 16  2  0
 16 17  1  0
 17 18  1  0
  5 11  1  0
  3 28  1  0
  7 29  1  0
 10 30  1  0
 11 31  1  1
 11 32  1  0
 11 33  1  0
 12 34  1  0
 15 35  1  0
 16 36  1  0
 18 37  1  1
 18 38  1  0
 18 39  1  0
 21 40  1  0
 24 41  1  0
 25 42  1  0
 26 43  1  0
 27 44  1  0
M  END
>  <Pose ID>  (82)
69

>  <Score>  (82)
-6.88737678527832

>  <smiles>  (82)
COc1cc2cc(Nc3nccn3C)nc-2[nH]c1C(=O)Nc1ccccn1

$$$$

     RDKit          3D

 41 44  0  0  0  0  0  0  0  0999 V2000
   25.1250    9.2680   -7.0380 C   0  0  0  0  0  0  0  0  0  0  0  0
   25.0100    7.8950   -6.8410 C   0  0  0  0  0  0  0  0  0  0  0  0
   25.7090    7.0140   -7.6520 N   0  0  0  0  0  0  0  0  0  0  0  0
   26.5310    7.5040   -8.6640 C   0  0  0  0  0  0  0  0  0  0  0  0
   24.5730   10.2680   -6.4070 O   0  0  0  0  0  0  0  0  0  0  0  0
   26.6480    8.8740   -8.8590 C   0  0  0  0  0  0  0  0  0  0  0  0
   25.9470    9.7560   -8.0490 C   0  0  0  0  0  0  0  0  0  0  0  0
   27.2980    6.8600   -9.5630 N   0  0  0  0  0  0  0  0  0  0  0  0
   27.9220    7.7920  -10.3600 C   0  0  0  0  0  0  0  0  0  0  0  0
   27.4100    8.9840   -9.8030 C   0  0  0  0  0  0  0  0  0  0  0  0
   25.4620   10.9130   -5.5020 C   0  0  1  0  0  0  0  0  0  0  0  0
   28.8000    7.7940  -11.4160 N   0  0  0  0  0  0  0  0  0  0  0  0
   29.2130    8.9640  -11.9620 C   0  0  0  0  0  0  0  0  0  0  0  0
   30.5710    9.3550  -12.0350 N   0  0  0  0  0  0  0  0  0  0  0  0
   30.6270   10.6070  -12.6620 C   0  0  0  0  0  0  0  0  0  0  0  0
   29.2480   10.8300  -12.9020 C   0  0  0  0  0  0  0  0  0  0  0  0
   28.4080    9.8490  -12.4950 N   0  0  0  0  0  0  0  0  0  0  0  0
   26.9430    9.8360  -12.6640 C   0  0  1  0  0  0  0  0  0  0  0  0
   24.2030    7.4110   -5.8400 N   0  0  0  0  0  0  0  0  0  0  0  0
   23.4470    8.1690   -5.0390 C   0  0  0  0  0  0  0  0  0  0  0  0
   23.8350    8.5710   -3.7670 C   0  0  0  0  0  0  0  0  0  0  0  0
   23.0130    9.4100   -3.0230 N   0  0  0  0  0  0  0  0  0  0  0  0
   21.8040    9.8470   -3.5510 C   0  0  0  0  0  0  0  0  0  0  0  0
   21.4170    9.4440   -4.8240 C   0  0  0  0  0  0  0  0  0  0  0  0
   22.2230    8.6170   -5.5820 N   0  0  0  0  0  0  0  0  0  0  0  0
   25.6205    5.9982   -7.5062 H   0  0  0  0  0  0  0  0  0  0  0  0
   26.0411   10.8406   -8.2061 H   0  0  0  0  0  0  0  0  0  0  0  0
   27.6873    9.9699  -10.2043 H   0  0  0  0  0  0  0  0  0  0  0  0
   25.1572   10.6919   -4.4684 H   0  0  0  0  0  0  0  0  0  0  0  0
   26.4854   10.5459   -5.6690 H   0  0  0  0  0  0  0  0  0  0  0  0
   25.4305   11.9998   -5.6690 H   0  0  0  0  0  0  0  0  0  0  0  0
   29.1467    6.9014  -11.7953 H   0  0  0  0  0  0  0  0  0  0  0  0
   31.4957   11.2383  -12.9005 H   0  0  0  0  0  0  0  0  0  0  0  0
   28.8820   11.7454  -13.3898 H   0  0  0  0  0  0  0  0  0  0  0  0
   26.4599    9.8317  -11.6758 H   0  0  0  0  0  0  0  0  0  0  0  0
   26.6302   10.7314  -13.2211 H   0  0  0  0  0  0  0  0  0  0  0  0
   26.6462    8.9352  -13.2211 H   0  0  0  0  0  0  0  0  0  0  0  0
   24.1786    6.3914   -5.6963 H   0  0  0  0  0  0  0  0  0  0  0  0
   24.7920    8.2257   -3.3487 H   0  0  0  0  0  0  0  0  0  0  0  0
   21.1540   10.5110   -2.9623 H   0  0  0  0  0  0  0  0  0  0  0  0
   20.4558    9.7884   -5.2332 H   0  0  0  0  0  0  0  0  0  0  0  0
  1  7  1  0
  1  2  2  0
  1  5  1  0
  2  3  1  0
  2 19  1  0
  3  4  1  0
  4  8  2  0
  4  6  1  0
  6 10  1  0
  6  7  2  0
  8  9  1  0
  9 12  1  0
  9 10  2  0
 12 13  1  0
 13 17  1  0
 13 14  2  0
 14 15  1  0
 15 16  2  0
 16 17  1  0
 17 18  1  0
  5 11  1  0
 19 20  1  0
 20 25  1  0
 20 21  2  0
 21 22  1  0
 22 23  2  0
 23 24  1  0
 24 25  2  0
  3 26  1  0
  7 27  1  0
 10 28  1  0
 11 29  1  1
 11 30  1  0
 11 31  1  0
 12 32  1  0
 15 33  1  0
 16 34  1  0
 18 35  1  1
 18 36  1  0
 18 37  1  0
 19 38  1  0
 21 39  1  0
 23 40  1  0
 24 41  1  0
M  END
>  <Pose ID>  (83)
84

>  <Score>  (83)
-6.863278865814209

>  <smiles>  (83)
COc1cc2cc(Nc3nccn3C)nc-2[nH]c1Nc1cnccn1

$$$$

     RDKit          3D

 38 40  0  0  0  0  0  0  0  0999 V2000
   25.0920    9.1490   -6.8000 C   0  0  0  0  0  0  0  0  0  0  0  0
   25.0620    7.7760   -6.5720 C   0  0  0  0  0  0  0  0  0  0  0  0
   25.7710    6.9170   -7.4000 N   0  0  0  0  0  0  0  0  0  0  0  0
   26.5170    7.4320   -8.4590 C   0  0  0  0  0  0  0  0  0  0  0  0
   24.5160   10.1300   -6.1620 O   0  0  0  0  0  0  0  0  0  0  0  0
   26.5480    8.8000   -8.6840 C   0  0  0  0  0  0  0  0  0  0  0  0
   25.8380    9.6590   -7.8580 C   0  0  0  0  0  0  0  0  0  0  0  0
   27.2750    6.8090   -9.3800 N   0  0  0  0  0  0  0  0  0  0  0  0
   27.8080    7.7590  -10.2220 C   0  0  0  0  0  0  0  0  0  0  0  0
   27.2580    8.9320   -9.6650 C   0  0  0  0  0  0  0  0  0  0  0  0
   25.4080   10.8420   -5.3130 C   0  0  1  0  0  0  0  0  0  0  0  0
   28.6360    7.7860  -11.3200 N   0  0  0  0  0  0  0  0  0  0  0  0
   28.9570    8.9650  -11.9060 C   0  0  0  0  0  0  0  0  0  0  0  0
   30.2880    9.4280  -12.0510 N   0  0  0  0  0  0  0  0  0  0  0  0
   30.2440   10.6670  -12.7030 C   0  0  0  0  0  0  0  0  0  0  0  0
   28.8450   10.8100  -12.8820 C   0  0  0  0  0  0  0  0  0  0  0  0
   28.0810    9.7940  -12.4160 N   0  0  0  0  0  0  0  0  0  0  0  0
   26.6130    9.6960  -12.5150 C   0  0  1  0  0  0  0  0  0  0  0  0
   24.2570    7.2200   -5.4230 C   0  0  1  0  0  0  0  0  0  0  0  0
   22.7850    7.0350   -5.7800 C   0  0  0  0  0  0  0  0  0  0  0  0
   22.4830    6.4510   -6.7940 O   0  0  0  0  0  0  0  0  0  0  0  0
   21.9300    7.5130   -4.8570 N   0  0  0  0  0  0  0  0  0  0  0  0
   25.7460    5.9010   -7.2324 H   0  0  0  0  0  0  0  0  0  0  0  0
   25.8648   10.7436   -8.0395 H   0  0  0  0  0  0  0  0  0  0  0  0
   27.4612    9.9228  -10.0974 H   0  0  0  0  0  0  0  0  0  0  0  0
   25.1542   10.6394   -4.2620 H   0  0  0  0  0  0  0  0  0  0  0  0
   26.4401   10.5167   -5.5102 H   0  0  0  0  0  0  0  0  0  0  0  0
   25.3195   11.9206   -5.5102 H   0  0  0  0  0  0  0  0  0  0  0  0
   29.0139    6.9058  -11.6987 H   0  0  0  0  0  0  0  0  0  0  0  0
   31.0642   11.3397  -12.9942 H   0  0  0  0  0  0  0  0  0  0  0  0
   28.4067   11.6930  -13.3700 H   0  0  0  0  0  0  0  0  0  0  0  0
   26.1785    9.6670  -11.5049 H   0  0  0  0  0  0  0  0  0  0  0  0
   26.2229   10.5701  -13.0570 H   0  0  0  0  0  0  0  0  0  0  0  0
   26.3425    8.7778  -13.0570 H   0  0  0  0  0  0  0  0  0  0  0  0
   24.6766    6.2441   -5.1373 H   0  0  0  0  0  0  0  0  0  0  0  0
   24.3131    7.9411   -4.5942 H   0  0  0  0  0  0  0  0  0  0  0  0
   20.9139    7.4353   -5.0070 H   0  0  0  0  0  0  0  0  0  0  0  0
   22.2917    7.9566   -4.0007 H   0  0  0  0  0  0  0  0  0  0  0  0
  1  7  1  0
  1  2  2  0
  1  5  1  0
  2  3  1  0
  2 19  1  0
  3  4  1  0
  4  8  2  0
  4  6  1  0
  6 10  1  0
  6  7  2  0
  8  9  1  0
  9 12  1  0
  9 10  2  0
 12 13  1  0
 13 17  1  0
 13 14  2  0
 14 15  1  0
 15 16  2  0
 16 17  1  0
 17 18  1  0
  5 11  1  0
 19 20  1  0
 20 21  2  0
 20 22  1  0
  3 23  1  0
  7 24  1  0
 10 25  1  0
 11 26  1  1
 11 27  1  0
 11 28  1  0
 12 29  1  0
 15 30  1  0
 16 31  1  0
 18 32  1  1
 18 33  1  0
 18 34  1  0
 19 35  1  1
 19 36  1  0
 22 37  1  0
 22 38  1  0
M  END
>  <Pose ID>  (84)
133

>  <Score>  (84)
-6.8323283195495605

>  <smiles>  (84)
COc1cc2cc(Nc3nccn3C)nc-2[nH]c1CC(N)=O

$$$$

     RDKit          3D

 42 45  0  0  0  0  0  0  0  0999 V2000
   25.3690    9.6850   -6.7530 C   0  0  0  0  0  0  0  0  0  0  0  0
   25.1770    8.3350   -6.4700 C   0  0  0  0  0  0  0  0  0  0  0  0
   25.7730    7.3650   -7.2650 N   0  0  0  0  0  0  0  0  0  0  0  0
   26.5630    7.7450   -8.3490 C   0  0  0  0  0  0  0  0  0  0  0  0
   24.9190   10.7510   -6.1510 O   0  0  0  0  0  0  0  0  0  0  0  0
   26.7550    9.0900   -8.6290 C   0  0  0  0  0  0  0  0  0  0  0  0
   26.1580   10.0590   -7.8340 C   0  0  0  0  0  0  0  0  0  0  0  0
   27.2310    7.0010   -9.2480 N   0  0  0  0  0  0  0  0  0  0  0  0
   27.8660    7.8460  -10.1310 C   0  0  0  0  0  0  0  0  0  0  0  0
   27.4650    9.0990   -9.6180 C   0  0  0  0  0  0  0  0  0  0  0  0
   25.8980   11.3850   -5.3360 C   0  0  1  0  0  0  0  0  0  0  0  0
   28.6790    7.7310  -11.2330 N   0  0  0  0  0  0  0  0  0  0  0  0
   29.1330    8.8400  -11.8670 C   0  0  0  0  0  0  0  0  0  0  0  0
   30.5070    9.1340  -12.0390 N   0  0  0  0  0  0  0  0  0  0  0  0
   30.6040   10.3440  -12.7400 C   0  0  0  0  0  0  0  0  0  0  0  0
   29.2300   10.6450  -12.9150 C   0  0  0  0  0  0  0  0  0  0  0  0
   28.3570    9.7470  -12.4060 N   0  0  0  0  0  0  0  0  0  0  0  0
   26.8850    9.8190  -12.4930 C   0  0  1  0  0  0  0  0  0  0  0  0
   24.3830    7.9540   -5.3740 C   0  0  0  0  0  0  0  0  0  0  0  0
   23.6710    8.6420   -4.4140 N   0  0  0  0  0  0  0  0  0  0  0  0
   24.1800    6.5810   -5.0980 C   0  0  0  0  0  0  0  0  0  0  0  0
   23.1040    7.7770   -3.6090 C   0  0  0  0  0  0  0  0  0  0  0  0
   23.4710    6.3870   -4.1070 C   0  0  0  0  0  0  0  0  0  0  0  0
   23.0580    5.0610   -3.5180 C   0  0  1  0  0  0  0  0  0  0  0  0
   25.6317    6.3667   -7.0542 H   0  0  0  0  0  0  0  0  0  0  0  0
   26.3098   11.1247   -8.0602 H   0  0  0  0  0  0  0  0  0  0  0  0
   27.7800   10.0410  -10.0907 H   0  0  0  0  0  0  0  0  0  0  0  0
   25.6517   11.2255   -4.2759 H   0  0  0  0  0  0  0  0  0  0  0  0
   26.8878   10.9560   -5.5510 H   0  0  0  0  0  0  0  0  0  0  0  0
   25.9114   12.4637   -5.5510 H   0  0  0  0  0  0  0  0  0  0  0  0
   28.9447    6.7979  -11.5789 H   0  0  0  0  0  0  0  0  0  0  0  0
   31.4950   10.9024  -13.0631 H   0  0  0  0  0  0  0  0  0  0  0  0
   28.8941   11.5549  -13.4339 H   0  0  0  0  0  0  0  0  0  0  0  0
   26.4584    9.8399  -11.4793 H   0  0  0  0  0  0  0  0  0  0  0  0
   26.5938   10.7325  -13.0323 H   0  0  0  0  0  0  0  0  0  0  0  0
   26.5060    8.9383  -13.0323 H   0  0  0  0  0  0  0  0  0  0  0  0
   23.5970    9.6668   -4.3416 H   0  0  0  0  0  0  0  0  0  0  0  0
   24.6100    5.7702   -5.7045 H   0  0  0  0  0  0  0  0  0  0  0  0
   22.4786    8.0124   -2.7352 H   0  0  0  0  0  0  0  0  0  0  0  0
   23.0780    5.1253   -2.4201 H   0  0  0  0  0  0  0  0  0  0  0  0
   22.0399    4.8125   -3.8522 H   0  0  0  0  0  0  0  0  0  0  0  0
   23.7549    4.2783   -3.8522 H   0  0  0  0  0  0  0  0  0  0  0  0
  1  7  1  0
  1  2  2  0
  1  5  1  0
  2  3  1  0
  2 19  1  0
  3  4  1  0
  4  8  2  0
  4  6  1  0
  6 10  1  0
  6  7  2  0
  8  9  1  0
  9 12  1  0
  9 10  2  0
 12 13  1  0
 13 17  1  0
 13 14  2  0
 14 15  1  0
 15 16  2  0
 16 17  1  0
 17 18  1  0
 19 21  2  0
 19 20  1  0
 20 22  1  0
 21 23  1  0
 22 23  2  0
 23 24  1  0
  5 11  1  0
  3 25  1  0
  7 26  1  0
 10 27  1  0
 11 28  1  1
 11 29  1  0
 11 30  1  0
 12 31  1  0
 15 32  1  0
 16 33  1  0
 18 34  1  1
 18 35  1  0
 18 36  1  0
 20 37  1  0
 21 38  1  0
 22 39  1  0
 24 40  1  1
 24 41  1  0
 24 42  1  0
M  END
>  <Pose ID>  (85)
40

>  <Score>  (85)
-6.824911594390869

>  <smiles>  (85)
COc1cc2cc(Nc3nccn3C)nc-2[nH]c1-c1cc(C)c[nH]1

$$$$

     RDKit          3D

 44 47  0  0  0  0  0  0  0  0999 V2000
   25.1250    9.2680   -7.0380 C   0  0  0  0  0  0  0  0  0  0  0  0
   25.0100    7.8950   -6.8410 C   0  0  0  0  0  0  0  0  0  0  0  0
   25.7090    7.0140   -7.6520 N   0  0  0  0  0  0  0  0  0  0  0  0
   26.5310    7.5040   -8.6640 C   0  0  0  0  0  0  0  0  0  0  0  0
   24.5730   10.2680   -6.4070 O   0  0  0  0  0  0  0  0  0  0  0  0
   26.6480    8.8740   -8.8590 C   0  0  0  0  0  0  0  0  0  0  0  0
   25.9470    9.7560   -8.0490 C   0  0  0  0  0  0  0  0  0  0  0  0
   27.2980    6.8600   -9.5630 N   0  0  0  0  0  0  0  0  0  0  0  0
   27.9220    7.7920  -10.3600 C   0  0  0  0  0  0  0  0  0  0  0  0
   27.4100    8.9840   -9.8030 C   0  0  0  0  0  0  0  0  0  0  0  0
   25.4620   10.9130   -5.5020 C   0  0  1  0  0  0  0  0  0  0  0  0
   28.8000    7.7940  -11.4160 N   0  0  0  0  0  0  0  0  0  0  0  0
   29.2130    8.9640  -11.9620 C   0  0  0  0  0  0  0  0  0  0  0  0
   30.5710    9.3550  -12.0350 N   0  0  0  0  0  0  0  0  0  0  0  0
   30.6270   10.6070  -12.6620 C   0  0  0  0  0  0  0  0  0  0  0  0
   29.2480   10.8300  -12.9020 C   0  0  0  0  0  0  0  0  0  0  0  0
   28.4080    9.8490  -12.4950 N   0  0  0  0  0  0  0  0  0  0  0  0
   26.9430    9.8360  -12.6640 C   0  0  1  0  0  0  0  0  0  0  0  0
   24.2030    7.4110   -5.8400 N   0  0  0  0  0  0  0  0  0  0  0  0
   23.4470    8.1690   -5.0390 C   0  0  0  0  0  0  0  0  0  0  0  0
   23.8350    8.5710   -3.7670 C   0  0  0  0  0  0  0  0  0  0  0  0
   23.0130    9.4100   -3.0230 N   0  0  0  0  0  0  0  0  0  0  0  0
   21.8040    9.8470   -3.5510 C   0  0  0  0  0  0  0  0  0  0  0  0
   21.4170    9.4440   -4.8240 C   0  0  0  0  0  0  0  0  0  0  0  0
   22.2230    8.6170   -5.5820 N   0  0  0  0  0  0  0  0  0  0  0  0
   20.9130   10.7580   -2.7440 C   0  0  1  0  0  0  0  0  0  0  0  0
   25.6205    5.9982   -7.5062 H   0  0  0  0  0  0  0  0  0  0  0  0
   26.0411   10.8406   -8.2061 H   0  0  0  0  0  0  0  0  0  0  0  0
   27.6873    9.9699  -10.2043 H   0  0  0  0  0  0  0  0  0  0  0  0
   25.1572   10.6919   -4.4684 H   0  0  0  0  0  0  0  0  0  0  0  0
   26.4854   10.5459   -5.6690 H   0  0  0  0  0  0  0  0  0  0  0  0
   25.4305   11.9998   -5.6690 H   0  0  0  0  0  0  0  0  0  0  0  0
   29.1467    6.9014  -11.7953 H   0  0  0  0  0  0  0  0  0  0  0  0
   31.4957   11.2383  -12.9005 H   0  0  0  0  0  0  0  0  0  0  0  0
   28.8820   11.7454  -13.3898 H   0  0  0  0  0  0  0  0  0  0  0  0
   26.4599    9.8317  -11.6758 H   0  0  0  0  0  0  0  0  0  0  0  0
   26.6302   10.7314  -13.2211 H   0  0  0  0  0  0  0  0  0  0  0  0
   26.6462    8.9352  -13.2211 H   0  0  0  0  0  0  0  0  0  0  0  0
   24.1786    6.3914   -5.6963 H   0  0  0  0  0  0  0  0  0  0  0  0
   24.7920    8.2257   -3.3487 H   0  0  0  0  0  0  0  0  0  0  0  0
   20.4558    9.7884   -5.2332 H   0  0  0  0  0  0  0  0  0  0  0  0
   21.0844   10.5828   -1.6717 H   0  0  0  0  0  0  0  0  0  0  0  0
   21.1445   11.8058   -2.9859 H   0  0  0  0  0  0  0  0  0  0  0  0
   19.8603   10.5498   -2.9859 H   0  0  0  0  0  0  0  0  0  0  0  0
  1  7  1  0
  1  2  2  0
  1  5  1  0
  2  3  1  0
  2 19  1  0
  3  4  1  0
  4  8  2  0
  4  6  1  0
  6 10  1  0
  6  7  2  0
  8  9  1  0
  9 12  1  0
  9 10  2  0
 12 13  1  0
 13 17  1  0
 13 14  2  0
 14 15  1  0
 15 16  2  0
 16 17  1  0
 17 18  1  0
  5 11  1  0
 19 20  1  0
 20 25  1  0
 20 21  2  0
 21 22  1  0
 22 23  2  0
 23 24  1  0
 23 26  1  0
 24 25  2  0
  3 27  1  0
  7 28  1  0
 10 29  1  0
 11 30  1  1
 11 31  1  0
 11 32  1  0
 12 33  1  0
 15 34  1  0
 16 35  1  0
 18 36  1  1
 18 37  1  0
 18 38  1  0
 19 39  1  0
 21 40  1  0
 24 41  1  0
 26 42  1  1
 26 43  1  0
 26 44  1  0
M  END
>  <Pose ID>  (86)
86

>  <Score>  (86)
-6.813384532928467

>  <smiles>  (86)
COc1cc2cc(Nc3nccn3C)nc-2[nH]c1Nc1cnc(C)cn1

$$$$

     RDKit          3D

 47 50  0  0  0  0  0  0  0  0999 V2000
   25.1910    9.3210   -6.8940 C   0  0  0  0  0  0  0  0  0  0  0  0
   25.0730    7.9490   -6.6820 C   0  0  0  0  0  0  0  0  0  0  0  0
   25.7380    7.0580   -7.5100 N   0  0  0  0  0  0  0  0  0  0  0  0
   26.5280    7.5360   -8.5540 C   0  0  0  0  0  0  0  0  0  0  0  0
   24.6680   10.3300   -6.2520 O   0  0  0  0  0  0  0  0  0  0  0  0
   26.6460    8.9030   -8.7650 C   0  0  0  0  0  0  0  0  0  0  0  0
   25.9800    9.7960   -7.9370 C   0  0  0  0  0  0  0  0  0  0  0  0
   27.2580    6.8780   -9.4740 N   0  0  0  0  0  0  0  0  0  0  0  0
   27.8600    7.8000  -10.3000 C   0  0  0  0  0  0  0  0  0  0  0  0
   27.3750    9.0000   -9.7360 C   0  0  0  0  0  0  0  0  0  0  0  0
   25.5930   10.9760   -5.3840 C   0  0  1  0  0  0  0  0  0  0  0  0
   28.7010    7.7870  -11.3870 N   0  0  0  0  0  0  0  0  0  0  0  0
   29.1010    8.9500  -11.9550 C   0  0  0  0  0  0  0  0  0  0  0  0
   30.4610    9.3320  -12.0790 N   0  0  0  0  0  0  0  0  0  0  0  0
   30.5000   10.5790  -12.7180 C   0  0  0  0  0  0  0  0  0  0  0  0
   29.1140   10.8080  -12.9130 C   0  0  0  0  0  0  0  0  0  0  0  0
   28.2860    9.8380  -12.4670 N   0  0  0  0  0  0  0  0  0  0  0  0
   26.8160    9.8310  -12.5830 C   0  0  1  0  0  0  0  0  0  0  0  0
   24.2360    7.4420   -5.5660 C   0  0  0  0  0  0  0  0  0  0  0  0
   23.7350    6.3200   -5.5950 O   0  0  0  0  0  0  0  0  0  0  0  0
   23.9510    8.2460   -4.4030 N   0  0  0  0  0  0  0  0  0  0  0  0
   23.3830    7.7920   -3.2720 C   0  0  0  0  0  0  0  0  0  0  0  0
   22.3970    8.5660   -2.6740 N   0  0  0  0  0  0  0  0  0  0  0  0
   21.7830    8.1310   -1.5050 C   0  0  0  0  0  0  0  0  0  0  0  0
   22.1560    6.9200   -0.9360 C   0  0  0  0  0  0  0  0  0  0  0  0
   23.1420    6.1440   -1.5340 C   0  0  0  0  0  0  0  0  0  0  0  0
   23.7330    6.5680   -2.7190 C   0  0  0  0  0  0  0  0  0  0  0  0
   21.4900    6.4470    0.3320 C   0  0  1  0  0  0  0  0  0  0  0  0
   25.6484    6.0439   -7.3539 H   0  0  0  0  0  0  0  0  0  0  0  0
   26.0759   10.8788   -8.1053 H   0  0  0  0  0  0  0  0  0  0  0  0
   27.6440    9.9806  -10.1555 H   0  0  0  0  0  0  0  0  0  0  0  0
   25.3128   10.7803   -4.3384 H   0  0  0  0  0  0  0  0  0  0  0  0
   26.6047   10.5871   -5.5714 H   0  0  0  0  0  0  0  0  0  0  0  0
   25.5762   12.0598   -5.5714 H   0  0  0  0  0  0  0  0  0  0  0  0
   29.0285    6.8893  -11.7713 H   0  0  0  0  0  0  0  0  0  0  0  0
   31.3629   11.2041  -12.9913 H   0  0  0  0  0  0  0  0  0  0  0  0
   28.7360   11.7201  -13.3980 H   0  0  0  0  0  0  0  0  0  0  0  0
   26.3689    9.8289  -11.5780 H   0  0  0  0  0  0  0  0  0  0  0  0
   26.4870   10.7276  -13.1288 H   0  0  0  0  0  0  0  0  0  0  0  0
   26.4955    8.9313  -13.1288 H   0  0  0  0  0  0  0  0  0  0  0  0
   24.2017    9.2443   -4.4418 H   0  0  0  0  0  0  0  0  0  0  0  0
   21.0029    8.7450   -1.0313 H   0  0  0  0  0  0  0  0  0  0  0  0
   23.4541    5.1964   -1.0707 H   0  0  0  0  0  0  0  0  0  0  0  0
   24.4789    5.9326   -3.2189 H   0  0  0  0  0  0  0  0  0  0  0  0
   22.0389    6.8368    1.2019 H   0  0  0  0  0  0  0  0  0  0  0  0
   20.4526    6.8119    0.3594 H   0  0  0  0  0  0  0  0  0  0  0  0
   21.4928    5.3473    0.3594 H   0  0  0  0  0  0  0  0  0  0  0  0
  1  7  1  0
  1  2  2  0
  1  5  1  0
  2  3  1  0
  2 19  1  0
  3  4  1  0
  4  8  2  0
  4  6  1  0
  6 10  1  0
  6  7  2  0
  8  9  1  0
  9 12  1  0
  9 10  2  0
 19 20  2  0
 19 21  1  0
 21 22  1  0
 22 27  1  0
 22 23  2  0
 23 24  1  0
 24 25  2  0
 25 26  1  0
 25 28  1  0
 26 27  2  0
 12 13  1  0
 13 17  1  0
 13 14  2  0
 14 15  1  0
 15 16  2  0
 16 17  1  0
 17 18  1  0
  5 11  1  0
  3 29  1  0
  7 30  1  0
 10 31  1  0
 11 32  1  1
 11 33  1  0
 11 34  1  0
 12 35  1  0
 15 36  1  0
 16 37  1  0
 18 38  1  1
 18 39  1  0
 18 40  1  0
 21 41  1  0
 24 42  1  0
 26 43  1  0
 27 44  1  0
 28 45  1  1
 28 46  1  0
 28 47  1  0
M  END
>  <Pose ID>  (87)
71

>  <Score>  (87)
-6.803373336791992

>  <smiles>  (87)
COc1cc2cc(Nc3nccn3C)nc-2[nH]c1C(=O)Nc1ccc(C)cn1

$$$$

     RDKit          3D

 43 46  0  0  0  0  0  0  0  0999 V2000
   25.1160    9.5010   -6.8910 C   0  0  0  0  0  0  0  0  0  0  0  0
   25.0080    8.1420   -6.6160 C   0  0  0  0  0  0  0  0  0  0  0  0
   25.6960    7.2180   -7.3930 N   0  0  0  0  0  0  0  0  0  0  0  0
   26.5000    7.6550   -8.4430 C   0  0  0  0  0  0  0  0  0  0  0  0
   24.5730   10.5330   -6.3030 O   0  0  0  0  0  0  0  0  0  0  0  0
   26.6110    9.0120   -8.7140 C   0  0  0  0  0  0  0  0  0  0  0  0
   25.9220    9.9360   -7.9400 C   0  0  0  0  0  0  0  0  0  0  0  0
   27.2520    6.9640   -9.3150 N   0  0  0  0  0  0  0  0  0  0  0  0
   27.8610    7.8560  -10.1740 C   0  0  0  0  0  0  0  0  0  0  0  0
   27.3540    9.0730   -9.6750 C   0  0  0  0  0  0  0  0  0  0  0  0
   25.4750   11.2260   -5.4520 C   0  0  1  0  0  0  0  0  0  0  0  0
   28.7220    7.8000  -11.2430 N   0  0  0  0  0  0  0  0  0  0  0  0
   29.1230    8.9390  -11.8560 C   0  0  0  0  0  0  0  0  0  0  0  0
   30.4810    9.3260  -11.9750 N   0  0  0  0  0  0  0  0  0  0  0  0
   30.5210   10.5460  -12.6690 C   0  0  0  0  0  0  0  0  0  0  0  0
   29.1390   10.7520  -12.8970 C   0  0  0  0  0  0  0  0  0  0  0  0
   28.3090    9.7950  -12.4240 N   0  0  0  0  0  0  0  0  0  0  0  0
   26.8410    9.7670  -12.5680 C   0  0  1  0  0  0  0  0  0  0  0  0
   24.1400    7.6670   -5.4780 C   0  0  1  0  0  0  0  0  0  0  0  0
   23.4240    8.5930   -4.6140 C   0  0  0  0  0  0  0  0  0  0  0  0
   22.0520    8.8090   -4.6190 N   0  0  0  0  0  0  0  0  0  0  0  0
   21.4890    9.7200   -3.7350 C   0  0  0  0  0  0  0  0  0  0  0  0
   22.2980   10.4160   -2.8450 C   0  0  0  0  0  0  0  0  0  0  0  0
   23.6710   10.2010   -2.8410 N   0  0  0  0  0  0  0  0  0  0  0  0
   24.2570    9.2650   -3.7240 C   0  0  0  0  0  0  0  0  0  0  0  0
   25.4830    9.0470   -3.7060 O   0  0  0  0  0  0  0  0  0  0  0  0
   25.6115    6.2112   -7.1927 H   0  0  0  0  0  0  0  0  0  0  0  0
   26.0127   11.0109   -8.1552 H   0  0  0  0  0  0  0  0  0  0  0  0
   27.6190   10.0364  -10.1350 H   0  0  0  0  0  0  0  0  0  0  0  0
   25.2152   11.0264   -4.4019 H   0  0  0  0  0  0  0  0  0  0  0  0
   26.5013   10.8819   -5.6476 H   0  0  0  0  0  0  0  0  0  0  0  0
   25.4070   12.3063   -5.6476 H   0  0  0  0  0  0  0  0  0  0  0  0
   29.0638    6.8885  -11.5795 H   0  0  0  0  0  0  0  0  0  0  0  0
   31.3830   11.1666  -12.9549 H   0  0  0  0  0  0  0  0  0  0  0  0
   28.7624   11.6387  -13.4279 H   0  0  0  0  0  0  0  0  0  0  0  0
   26.3749    9.7581  -11.5716 H   0  0  0  0  0  0  0  0  0  0  0  0
   26.5096   10.6590  -13.1199 H   0  0  0  0  0  0  0  0  0  0  0  0
   26.5439    8.8630  -13.1199 H   0  0  0  0  0  0  0  0  0  0  0  0
   23.3779    7.0118   -5.9252 H   0  0  0  0  0  0  0  0  0  0  0  0
   24.8803    7.2347   -4.7888 H   0  0  0  0  0  0  0  0  0  0  0  0
   20.4023    9.8907   -3.7393 H   0  0  0  0  0  0  0  0  0  0  0  0
   21.8519   11.1368   -2.1440 H   0  0  0  0  0  0  0  0  0  0  0  0
   24.2678   10.7288   -2.1882 H   0  0  0  0  0  0  0  0  0  0  0  0
  1  7  1  0
  1  2  2  0
  1  5  1  0
  2  3  1  0
  2 19  1  0
  3  4  1  0
  4  8  2  0
  4  6  1  0
  6 10  1  0
  6  7  2  0
  8  9  1  0
  9 12  1  0
  9 10  2  0
 12 13  1  0
 13 17  1  0
 13 14  2  0
 14 15  1  0
 15 16  2  0
 16 17  1  0
 17 18  1  0
  5 11  1  0
 19 20  1  0
 20 21  2  0
 20 25  1  0
 21 22  1  0
 22 23  2  0
 23 24  1  0
 24 25  1  0
 25 26  2  0
  3 27  1  0
  7 28  1  0
 10 29  1  0
 11 30  1  1
 11 31  1  0
 11 32  1  0
 12 33  1  0
 15 34  1  0
 16 35  1  0
 18 36  1  1
 18 37  1  0
 18 38  1  0
 19 39  1  6
 19 40  1  0
 22 41  1  0
 23 42  1  0
 24 43  1  0
M  END
>  <Pose ID>  (88)
127

>  <Score>  (88)
-6.8026604652404785

>  <smiles>  (88)
COc1cc2cc(Nc3nccn3C)nc-2[nH]c1Cc1ncc[nH]c1=O

$$$$

     RDKit          3D

 44 47  0  0  0  0  0  0  0  0999 V2000
   25.1580    9.2790   -6.8740 C   0  0  0  0  0  0  0  0  0  0  0  0
   24.9760    7.9100   -6.7000 C   0  0  0  0  0  0  0  0  0  0  0  0
   25.6090    7.0100   -7.5480 N   0  0  0  0  0  0  0  0  0  0  0  0
   26.4310    7.4810   -8.5710 C   0  0  0  0  0  0  0  0  0  0  0  0
   24.6750   10.2910   -6.2060 O   0  0  0  0  0  0  0  0  0  0  0  0
   26.6130    8.8460   -8.7400 C   0  0  0  0  0  0  0  0  0  0  0  0
   25.9800    9.7460   -7.8950 C   0  0  0  0  0  0  0  0  0  0  0  0
   27.1380    6.8160   -9.5010 N   0  0  0  0  0  0  0  0  0  0  0  0
   27.7910    7.7320  -10.2960 C   0  0  0  0  0  0  0  0  0  0  0  0
   27.3580    8.9380   -9.7010 C   0  0  0  0  0  0  0  0  0  0  0  0
   25.6200   10.8700   -5.3130 C   0  0  1  0  0  0  0  0  0  0  0  0
   28.6430    7.7110  -11.3730 N   0  0  0  0  0  0  0  0  0  0  0  0
   29.1020    8.8690  -11.9050 C   0  0  0  0  0  0  0  0  0  0  0  0
   30.4780    9.1910  -12.0060 N   0  0  0  0  0  0  0  0  0  0  0  0
   30.5820   10.4510  -12.6090 C   0  0  0  0  0  0  0  0  0  0  0  0
   29.2110   10.7520  -12.8080 C   0  0  0  0  0  0  0  0  0  0  0  0
   28.3330    9.8090  -12.4010 N   0  0  0  0  0  0  0  0  0  0  0  0
   26.8640    9.8720  -12.5310 C   0  0  1  0  0  0  0  0  0  0  0  0
   24.1470    7.4140   -5.6150 C   0  0  0  0  0  0  0  0  0  0  0  0
   22.8210    7.8280   -5.5990 C   0  0  0  0  0  0  0  0  0  0  0  0
   21.9530    7.3470   -4.6250 N   0  0  0  0  0  0  0  0  0  0  0  0
   22.4120    6.4520   -3.6670 C   0  0  0  0  0  0  0  0  0  0  0  0
   23.7390    6.0380   -3.6810 C   0  0  0  0  0  0  0  0  0  0  0  0
   24.6000    6.5250   -4.6790 C   0  0  0  0  0  0  0  0  0  0  0  0
   22.4110    8.6320   -6.4550 O   0  0  0  0  0  0  0  0  0  0  0  0
   20.5080    7.7230   -4.5060 C   0  0  1  0  0  0  0  0  0  0  0  0
   25.4714    5.9971   -7.4213 H   0  0  0  0  0  0  0  0  0  0  0  0
   26.1277   10.8274   -8.0320 H   0  0  0  0  0  0  0  0  0  0  0  0
   27.6787    9.9167  -10.0875 H   0  0  0  0  0  0  0  0  0  0  0  0
   25.3086   10.6792   -4.2754 H   0  0  0  0  0  0  0  0  0  0  0  0
   26.6101   10.4233   -5.4867 H   0  0  0  0  0  0  0  0  0  0  0  0
   25.6716   11.9550   -5.4867 H   0  0  0  0  0  0  0  0  0  0  0  0
   28.9344    6.8100  -11.7782 H   0  0  0  0  0  0  0  0  0  0  0  0
   31.4762   11.0412  -12.8581 H   0  0  0  0  0  0  0  0  0  0  0  0
   28.8818   11.6963  -13.2661 H   0  0  0  0  0  0  0  0  0  0  0  0
   26.4078    9.8916  -11.5302 H   0  0  0  0  0  0  0  0  0  0  0  0
   26.5832   10.7830  -13.0798 H   0  0  0  0  0  0  0  0  0  0  0  0
   26.5062    8.9884  -13.0798 H   0  0  0  0  0  0  0  0  0  0  0  0
   21.7252    6.0707   -2.8970 H   0  0  0  0  0  0  0  0  0  0  0  0
   24.1109    5.3370   -2.9193 H   0  0  0  0  0  0  0  0  0  0  0  0
   25.6469    6.1887   -4.7079 H   0  0  0  0  0  0  0  0  0  0  0  0
   20.2340    7.7943   -3.4431 H   0  0  0  0  0  0  0  0  0  0  0  0
   20.3406    8.6946   -4.9938 H   0  0  0  0  0  0  0  0  0  0  0  0
   19.8882    6.9562   -4.9938 H   0  0  0  0  0  0  0  0  0  0  0  0
  1  7  1  0
  1  2  2  0
  1  5  1  0
  2  3  1  0
  2 19  1  0
  3  4  1  0
  4  8  2  0
  4  6  1  0
  6 10  1  0
  6  7  2  0
  8  9  1  0
  9 12  1  0
  9 10  2  0
 12 13  1  0
 13 17  1  0
 13 14  2  0
 14 15  1  0
 15 16  2  0
 16 17  1  0
 17 18  1  0
 19 20  1  0
 19 24  2  0
 20 25  2  0
 20 21  1  0
 21 26  1  0
 21 22  1  0
 22 23  2  0
 23 24  1  0
  5 11  1  0
  3 27  1  0
  7 28  1  0
 10 29  1  0
 11 30  1  1
 11 31  1  0
 11 32  1  0
 12 33  1  0
 15 34  1  0
 16 35  1  0
 18 36  1  1
 18 37  1  0
 18 38  1  0
 22 39  1  0
 23 40  1  0
 24 41  1  0
 26 42  1  1
 26 43  1  0
 26 44  1  0
M  END
>  <Pose ID>  (89)
20

>  <Score>  (89)
-6.8015875816345215

>  <smiles>  (89)
COc1cc2cc(Nc3nccn3C)nc-2[nH]c1-c1cccn(C)c1=O

$$$$

     RDKit          3D

 46 49  0  0  0  0  0  0  0  0999 V2000
   25.2440    9.3450   -6.9030 C   0  0  0  0  0  0  0  0  0  0  0  0
   25.1420    7.9680   -6.7240 C   0  0  0  0  0  0  0  0  0  0  0  0
   25.8010    7.1010   -7.5850 N   0  0  0  0  0  0  0  0  0  0  0  0
   26.5720    7.6120   -8.6280 C   0  0  0  0  0  0  0  0  0  0  0  0
   24.7230   10.3320   -6.2310 O   0  0  0  0  0  0  0  0  0  0  0  0
   26.6770    8.9830   -8.8050 C   0  0  0  0  0  0  0  0  0  0  0  0
   26.0170    9.8510   -7.9460 C   0  0  0  0  0  0  0  0  0  0  0  0
   27.2930    6.9820   -9.5720 N   0  0  0  0  0  0  0  0  0  0  0  0
   27.8760    7.9300  -10.3840 C   0  0  0  0  0  0  0  0  0  0  0  0
   27.3930    9.1130   -9.7830 C   0  0  0  0  0  0  0  0  0  0  0  0
   25.6550   10.9650   -5.3580 C   0  0  1  0  0  0  0  0  0  0  0  0
   28.7000    7.9530  -11.4820 N   0  0  0  0  0  0  0  0  0  0  0  0
   29.0860    9.1310  -12.0260 C   0  0  0  0  0  0  0  0  0  0  0  0
   30.4380    9.5250  -12.1620 N   0  0  0  0  0  0  0  0  0  0  0  0
   30.4620   10.7860  -12.7690 C   0  0  0  0  0  0  0  0  0  0  0  0
   29.0710   11.0140  -12.9390 C   0  0  0  0  0  0  0  0  0  0  0  0
   28.2560   10.0240  -12.5060 N   0  0  0  0  0  0  0  0  0  0  0  0
   26.7830   10.0110  -12.6020 C   0  0  1  0  0  0  0  0  0  0  0  0
   26.1240   10.4370  -13.9150 C   0  0  1  0  0  0  0  0  0  0  0  0
   24.3230    7.4260   -5.6100 C   0  0  0  0  0  0  0  0  0  0  0  0
   23.8320    6.3010   -5.6590 O   0  0  0  0  0  0  0  0  0  0  0  0
   24.0530    8.1990   -4.4230 N   0  0  0  0  0  0  0  0  0  0  0  0
   23.4420    7.7340   -3.3810 C   0  0  0  0  0  0  0  0  0  0  0  0
   23.1450    6.4030   -3.1180 C   0  0  0  0  0  0  0  0  0  0  0  0
   22.4880    6.0550   -1.9440 N   0  0  0  0  0  0  0  0  0  0  0  0
   22.1290    7.0400   -1.0310 C   0  0  0  0  0  0  0  0  0  0  0  0
   22.4260    8.3730   -1.2940 N   0  0  0  0  0  0  0  0  0  0  0  0
   23.0810    8.7150   -2.4670 C   0  0  0  0  0  0  0  0  0  0  0  0
   25.7205    6.0826   -7.4535 H   0  0  0  0  0  0  0  0  0  0  0  0
   26.1042   10.9382   -8.0887 H   0  0  0  0  0  0  0  0  0  0  0  0
   27.6510   10.1062  -10.1791 H   0  0  0  0  0  0  0  0  0  0  0  0
   25.3693   10.7709   -4.3136 H   0  0  0  0  0  0  0  0  0  0  0  0
   26.6621   10.5633   -5.5433 H   0  0  0  0  0  0  0  0  0  0  0  0
   25.6529   12.0493   -5.5433 H   0  0  0  0  0  0  0  0  0  0  0  0
   29.0268    7.0677  -11.8947 H   0  0  0  0  0  0  0  0  0  0  0  0
   31.3182   11.4218  -13.0386 H   0  0  0  0  0  0  0  0  0  0  0  0
   28.6806   11.9364  -13.3936 H   0  0  0  0  0  0  0  0  0  0  0  0
   26.4551    8.9815  -12.3954 H   0  0  0  0  0  0  0  0  0  0  0  0
   26.4639   10.7805  -11.8836 H   0  0  0  0  0  0  0  0  0  0  0  0
   25.2184   11.0224  -13.6977 H   0  0  0  0  0  0  0  0  0  0  0  0
   26.8274   11.0517  -14.4958 H   0  0  0  0  0  0  0  0  0  0  0  0
   25.8523    9.5432  -14.4958 H   0  0  0  0  0  0  0  0  0  0  0  0
   24.3652    9.1803   -4.4031 H   0  0  0  0  0  0  0  0  0  0  0  0
   23.4302    5.6235   -3.8398 H   0  0  0  0  0  0  0  0  0  0  0  0
   21.6102    6.7651   -0.1008 H   0  0  0  0  0  0  0  0  0  0  0  0
   23.3160    9.7693   -2.6748 H   0  0  0  0  0  0  0  0  0  0  0  0
  1  7  1  0
  1  2  2  0
  1  5  1  0
  2  3  1  0
  2 20  1  0
  3  4  1  0
  4  8  2  0
  4  6  1  0
  6 10  1  0
  6  7  2  0
  8  9  1  0
  9 12  1  0
  9 10  2  0
 12 13  1  0
 13 17  1  0
 13 14  2  0
 14 15  1  0
 15 16  2  0
 16 17  1  0
 17 18  1  0
 18 19  1  0
 20 21  2  0
 20 22  1  0
 22 23  1  0
 23 24  2  0
 23 28  1  0
 24 25  1  0
 25 26  2  0
 26 27  1  0
 27 28  2  0
  5 11  1  0
  3 29  1  0
  7 30  1  0
 10 31  1  0
 11 32  1  1
 11 33  1  0
 11 34  1  0
 12 35  1  0
 15 36  1  0
 16 37  1  0
 18 38  1  1
 18 39  1  0
 19 40  1  1
 19 41  1  0
 19 42  1  0
 22 43  1  0
 24 44  1  0
 26 45  1  0
 28 46  1  0
M  END
>  <Pose ID>  (90)
10

>  <Score>  (90)
-6.790160179138184

>  <smiles>  (90)
CCn1ccnc1Nc1cc2cc(OC)c(C(=O)Nc3cncnc3)[nH]c-2n1

$$$$

     RDKit          3D

 43 46  0  0  0  0  0  0  0  0999 V2000
   25.1500    9.3900   -6.9230 C   0  0  0  0  0  0  0  0  0  0  0  0
   24.9920    8.0270   -6.6950 C   0  0  0  0  0  0  0  0  0  0  0  0
   25.6520    7.1050   -7.4960 N   0  0  0  0  0  0  0  0  0  0  0  0
   26.4760    7.5490   -8.5280 C   0  0  0  0  0  0  0  0  0  0  0  0
   24.6410   10.4220   -6.3070 O   0  0  0  0  0  0  0  0  0  0  0  0
   26.6350    8.9070   -8.7530 C   0  0  0  0  0  0  0  0  0  0  0  0
   25.9750    9.8290   -7.9550 C   0  0  0  0  0  0  0  0  0  0  0  0
   27.2080    6.8590   -9.4210 N   0  0  0  0  0  0  0  0  0  0  0  0
   27.8530    7.7530  -10.2450 C   0  0  0  0  0  0  0  0  0  0  0  0
   27.3900    8.9730   -9.7090 C   0  0  0  0  0  0  0  0  0  0  0  0
   25.5610   11.0560   -5.4270 C   0  0  1  0  0  0  0  0  0  0  0  0
   28.7170    7.7030  -11.3130 N   0  0  0  0  0  0  0  0  0  0  0  0
   29.1610    8.8470  -11.8860 C   0  0  0  0  0  0  0  0  0  0  0  0
   30.5320    9.1900  -11.9860 N   0  0  0  0  0  0  0  0  0  0  0  0
   30.6200   10.4260  -12.6420 C   0  0  0  0  0  0  0  0  0  0  0  0
   29.2470   10.6890  -12.8690 C   0  0  0  0  0  0  0  0  0  0  0  0
   28.3830    9.7460  -12.4300 N   0  0  0  0  0  0  0  0  0  0  0  0
   26.9140    9.7790  -12.5810 C   0  0  1  0  0  0  0  0  0  0  0  0
   24.2540    7.3570   -5.7600 N   0  0  0  0  0  0  0  0  0  0  0  0
   24.7310    6.2130   -4.9680 C   0  0  1  0  0  0  0  0  0  0  0  0
   24.0310    6.1400   -3.6470 C   0  0  1  0  0  0  0  0  0  0  0  0
   22.6210    6.6790   -4.0490 C   0  0  1  0  0  0  0  0  0  0  0  0
   22.9010    7.7850   -5.0810 C   0  0  1  0  0  0  0  0  0  0  0  0
   25.5329    6.0958   -7.3279 H   0  0  0  0  0  0  0  0  0  0  0  0
   26.1031   10.9062   -8.1371 H   0  0  0  0  0  0  0  0  0  0  0  0
   27.6960    9.9404  -10.1340 H   0  0  0  0  0  0  0  0  0  0  0  0
   25.2698   10.8553   -4.3854 H   0  0  0  0  0  0  0  0  0  0  0  0
   26.5720   10.6620   -5.6075 H   0  0  0  0  0  0  0  0  0  0  0  0
   25.5527   12.1411   -5.6075 H   0  0  0  0  0  0  0  0  0  0  0  0
   29.0280    6.7918  -11.6789 H   0  0  0  0  0  0  0  0  0  0  0  0
   31.5055   11.0229  -12.9059 H   0  0  0  0  0  0  0  0  0  0  0  0
   28.9041   11.6052  -13.3721 H   0  0  0  0  0  0  0  0  0  0  0  0
   26.4434    9.7896  -11.5868 H   0  0  0  0  0  0  0  0  0  0  0  0
   26.6225   10.6839  -13.1343 H   0  0  0  0  0  0  0  0  0  0  0  0
   26.5822    8.8881  -13.1343 H   0  0  0  0  0  0  0  0  0  0  0  0
   24.5402    5.2850   -5.5270 H   0  0  0  0  0  0  0  0  0  0  0  0
   25.8081    6.3409   -4.7850 H   0  0  0  0  0  0  0  0  0  0  0  0
   23.9800    5.1080   -3.2698 H   0  0  0  0  0  0  0  0  0  0  0  0
   24.5219    6.6952   -2.8342 H   0  0  0  0  0  0  0  0  0  0  0  0
   22.0130    5.8781   -4.4950 H   0  0  0  0  0  0  0  0  0  0  0  0
   22.0578    7.0541   -3.1818 H   0  0  0  0  0  0  0  0  0  0  0  0
   23.0065    8.7614   -4.5855 H   0  0  0  0  0  0  0  0  0  0  0  0
   22.0838    7.8941   -5.8092 H   0  0  0  0  0  0  0  0  0  0  0  0
  1  7  1  0
  1  2  2  0
  1  5  1  0
  2  3  1  0
  2 19  1  0
  3  4  1  0
  4  8  2  0
  4  6  1  0
  6 10  1  0
  6  7  2  0
  8  9  1  0
  9 12  1  0
  9 10  2  0
 12 13  1  0
 13 17  1  0
 13 14  2  0
 14 15  1  0
 15 16  2  0
 16 17  1  0
 17 18  1  0
 19 23  1  0
 19 20  1  0
 20 21  1  0
 21 22  1  0
 22 23  1  0
  5 11  1  0
  3 24  1  0
  7 25  1  0
 10 26  1  0
 11 27  1  1
 11 28  1  0
 11 29  1  0
 12 30  1  0
 15 31  1  0
 16 32  1  0
 18 33  1  1
 18 34  1  0
 18 35  1  0
 20 36  1  6
 20 37  1  0
 21 38  1  1
 21 39  1  0
 22 40  1  6
 22 41  1  0
 23 42  1  1
 23 43  1  0
M  END
>  <Pose ID>  (91)
137

>  <Score>  (91)
-6.787296772003174

>  <smiles>  (91)
COc1cc2cc(Nc3nccn3C)nc-2[nH]c1N1CCCC1

$$$$

     RDKit          3D

 53 56  0  0  0  0  0  0  0  0999 V2000
   25.0600    9.1230   -6.6690 C   0  0  0  0  0  0  0  0  0  0  0  0
   25.0560    7.7480   -6.4440 C   0  0  0  0  0  0  0  0  0  0  0  0
   25.7540    6.9020   -7.2940 N   0  0  0  0  0  0  0  0  0  0  0  0
   26.4640    7.4310   -8.3710 C   0  0  0  0  0  0  0  0  0  0  0  0
   24.4870   10.0940   -6.0120 O   0  0  0  0  0  0  0  0  0  0  0  0
   26.4690    8.8000   -8.5930 C   0  0  0  0  0  0  0  0  0  0  0  0
   25.7710    9.6470   -7.7450 C   0  0  0  0  0  0  0  0  0  0  0  0
   27.2060    6.8220   -9.3150 N   0  0  0  0  0  0  0  0  0  0  0  0
   27.7030    7.7810  -10.1680 C   0  0  0  0  0  0  0  0  0  0  0  0
   27.1520    8.9440   -9.5930 C   0  0  0  0  0  0  0  0  0  0  0  0
   25.3910   10.8160   -5.1850 C   0  0  1  0  0  0  0  0  0  0  0  0
   28.5010    7.8240  -11.2880 N   0  0  0  0  0  0  0  0  0  0  0  0
   28.7880    9.0100  -11.8780 C   0  0  0  0  0  0  0  0  0  0  0  0
   30.1070    9.4920  -12.0570 N   0  0  0  0  0  0  0  0  0  0  0  0
   30.0290   10.7320  -12.7030 C   0  0  0  0  0  0  0  0  0  0  0  0
   28.6250   10.8560  -12.8440 C   0  0  0  0  0  0  0  0  0  0  0  0
   27.8870    9.8280  -12.3620 N   0  0  0  0  0  0  0  0  0  0  0  0
   26.4180    9.7070  -12.4220 C   0  0  1  0  0  0  0  0  0  0  0  0
   24.2910    7.1770   -5.2770 C   0  0  1  0  0  0  0  0  0  0  0  0
   22.8110    6.9720   -5.5950 C   0  0  0  0  0  0  0  0  0  0  0  0
   22.4920    6.3870   -6.6010 O   0  0  0  0  0  0  0  0  0  0  0  0
   21.8580    7.4520   -4.7020 N   0  0  0  0  0  0  0  0  0  0  0  0
   20.9350    8.3850   -5.1160 C   0  0  0  0  0  0  0  0  0  0  0  0
   21.8420    7.0230   -3.3130 C   0  0  1  0  0  0  0  0  0  0  0  0
   22.1140    8.2210   -2.4430 C   0  0  1  0  0  0  0  0  0  0  0  0
   19.8110    9.0700   -4.4540 C   0  0  1  0  0  0  0  0  0  0  0  0
   20.2650    9.6950   -3.0840 C   0  0  1  0  0  0  0  0  0  0  0  0
   20.7280    8.6760   -2.0290 C   0  0  1  0  0  0  0  0  0  0  0  0
   21.1330    8.7660   -6.4590 O   0  0  0  0  0  0  0  0  0  0  0  0
   25.7476    5.8852   -7.1296 H   0  0  0  0  0  0  0  0  0  0  0  0
   25.7792   10.7325   -7.9227 H   0  0  0  0  0  0  0  0  0  0  0  0
   27.3304    9.9387  -10.0276 H   0  0  0  0  0  0  0  0  0  0  0  0
   25.1528   10.6258   -4.1281 H   0  0  0  0  0  0  0  0  0  0  0  0
   26.4202   10.4886   -5.3936 H   0  0  0  0  0  0  0  0  0  0  0  0
   25.2992   11.8921   -5.3936 H   0  0  0  0  0  0  0  0  0  0  0  0
   28.8820    6.9510  -11.6799 H   0  0  0  0  0  0  0  0  0  0  0  0
   30.8319   11.4168  -13.0135 H   0  0  0  0  0  0  0  0  0  0  0  0
   28.1619   11.7347  -13.3167 H   0  0  0  0  0  0  0  0  0  0  0  0
   26.0108    9.6735  -11.4007 H   0  0  0  0  0  0  0  0  0  0  0  0
   26.0002   10.5738  -12.9550 H   0  0  0  0  0  0  0  0  0  0  0  0
   26.1476    8.7835  -12.9550 H   0  0  0  0  0  0  0  0  0  0  0  0
   24.7320    6.2062   -5.0066 H   0  0  0  0  0  0  0  0  0  0  0  0
   24.3593    7.8959   -4.4473 H   0  0  0  0  0  0  0  0  0  0  0  0
   20.8569    6.6003   -3.0660 H   0  0  0  0  0  0  0  0  0  0  0  0
   22.6093    6.2526   -3.1463 H   0  0  0  0  0  0  0  0  0  0  0  0
   22.7152    7.9417   -1.5652 H   0  0  0  0  0  0  0  0  0  0  0  0
   22.6874    9.0053   -2.9588 H   0  0  0  0  0  0  0  0  0  0  0  0
   19.4402    9.8711   -5.1103 H   0  0  0  0  0  0  0  0  0  0  0  0
   19.0161    8.3349   -4.2594 H   0  0  0  0  0  0  0  0  0  0  0  0
   21.0991   10.3842   -3.2825 H   0  0  0  0  0  0  0  0  0  0  0  0
   19.3790   10.1933   -2.6636 H   0  0  0  0  0  0  0  0  0  0  0  0
   20.0396    7.8185   -2.0021 H   0  0  0  0  0  0  0  0  0  0  0  0
   20.7418    9.1243   -1.0246 H   0  0  0  0  0  0  0  0  0  0  0  0
  1  7  1  0
  1  2  2  0
  1  5  1  0
  2  3  1  0
  2 19  1  0
  3  4  1  0
  4  8  2  0
  4  6  1  0
  6 10  1  0
  6  7  2  0
  8  9  1  0
  9 12  1  0
  9 10  2  0
 12 13  1  0
 13 17  1  0
 13 14  2  0
 14 15  1  0
 15 16  2  0
 16 17  1  0
 17 18  1  0
  5 11  1  0
 19 20  1  0
 20 21  2  0
 20 22  1  0
 22 23  1  0
 22 24  1  0
 23 29  2  0
 23 26  1  0
 24 25  1  0
 25 28  1  0
 26 27  1  0
 27 28  1  0
  3 30  1  0
  7 31  1  0
 10 32  1  0
 11 33  1  1
 11 34  1  0
 11 35  1  0
 12 36  1  0
 15 37  1  0
 16 38  1  0
 18 39  1  1
 18 40  1  0
 18 41  1  0
 19 42  1  1
 19 43  1  0
 24 44  1  1
 24 45  1  0
 25 46  1  1
 25 47  1  0
 26 48  1  6
 26 49  1  0
 27 50  1  6
 27 51  1  0
 28 52  1  1
 28 53  1  0
M  END
>  <Pose ID>  (92)
135

>  <Score>  (92)
-6.767178535461426

>  <smiles>  (92)
COc1cc2cc(Nc3nccn3C)nc-2[nH]c1CC(=O)N1CCCCCC1=O

$$$$

     RDKit          3D

 55 59  0  0  0  0  0  0  0  0999 V2000
   25.1600    9.3150   -6.9880 C   0  0  0  0  0  0  0  0  0  0  0  0
   25.0130    7.9470   -6.7830 C   0  0  0  0  0  0  0  0  0  0  0  0
   25.6850    7.0460   -7.5960 N   0  0  0  0  0  0  0  0  0  0  0  0
   26.5120    7.5130   -8.6140 C   0  0  0  0  0  0  0  0  0  0  0  0
   24.6360   10.3300   -6.3570 O   0  0  0  0  0  0  0  0  0  0  0  0
   26.6600    8.8780   -8.8170 C   0  0  0  0  0  0  0  0  0  0  0  0
   25.9870    9.7800   -8.0060 C   0  0  0  0  0  0  0  0  0  0  0  0
   27.2580    6.8450   -9.5150 N   0  0  0  0  0  0  0  0  0  0  0  0
   27.8970    7.7590  -10.3200 C   0  0  0  0  0  0  0  0  0  0  0  0
   27.4190    8.9660   -9.7660 C   0  0  0  0  0  0  0  0  0  0  0  0
   25.5450   10.9580   -5.4590 C   0  0  1  0  0  0  0  0  0  0  0  0
   28.7690    7.7380  -11.3830 N   0  0  0  0  0  0  0  0  0  0  0  0
   29.2060    8.8940  -11.9380 C   0  0  0  0  0  0  0  0  0  0  0  0
   30.5720    9.2520  -12.0200 N   0  0  0  0  0  0  0  0  0  0  0  0
   30.6540   10.5000  -12.6510 C   0  0  0  0  0  0  0  0  0  0  0  0
   29.2780   10.7550  -12.8830 C   0  0  0  0  0  0  0  0  0  0  0  0
   28.4200    9.7970  -12.4660 N   0  0  0  0  0  0  0  0  0  0  0  0
   26.9530    9.8170  -12.6270 C   0  0  1  0  0  0  0  0  0  0  0  0
   24.2020    7.4860   -5.7750 N   0  0  0  0  0  0  0  0  0  0  0  0
   23.4570    8.2730   -4.9860 C   0  0  0  0  0  0  0  0  0  0  0  0
   23.8650    8.6620   -3.7170 C   0  0  0  0  0  0  0  0  0  0  0  0
   23.0750    9.5200   -2.9650 N   0  0  0  0  0  0  0  0  0  0  0  0
   21.8720    9.9900   -3.4800 C   0  0  0  0  0  0  0  0  0  0  0  0
   21.4640    9.6020   -4.7500 C   0  0  0  0  0  0  0  0  0  0  0  0
   22.2640    8.7310   -5.5010 C   0  0  0  0  0  0  0  0  0  0  0  0
   20.9340   10.8280   -2.9450 N   0  0  0  0  0  0  0  0  0  0  0  0
   19.5950   10.6540   -2.3650 C   0  0  1  0  0  0  0  0  0  0  0  0
   18.4960   11.4470   -2.8680 C   0  0  1  0  0  0  0  0  0  0  0  0
   19.5710   12.6850   -3.1790 C   0  0  1  0  0  0  0  0  0  0  0  0
   20.9390   12.1990   -3.2170 C   0  0  1  0  0  0  0  0  0  0  0  0
   20.2900   10.0680   -5.2640 O   0  0  0  0  0  0  0  0  0  0  0  0
   25.5723    6.0331   -7.4468 H   0  0  0  0  0  0  0  0  0  0  0  0
   26.1069   10.8615   -8.1674 H   0  0  0  0  0  0  0  0  0  0  0  0
   27.7185    9.9430  -10.1731 H   0  0  0  0  0  0  0  0  0  0  0  0
   25.2409   10.7479   -4.4229 H   0  0  0  0  0  0  0  0  0  0  0  0
   26.5587   10.5667   -5.6301 H   0  0  0  0  0  0  0  0  0  0  0  0
   25.5377   12.0446   -5.6301 H   0  0  0  0  0  0  0  0  0  0  0  0
   29.0926    6.8359  -11.7604 H   0  0  0  0  0  0  0  0  0  0  0  0
   31.5359   11.1097  -12.8970 H   0  0  0  0  0  0  0  0  0  0  0  0
   28.9301   11.6765  -13.3726 H   0  0  0  0  0  0  0  0  0  0  0  0
   26.4754    9.8235  -11.6361 H   0  0  0  0  0  0  0  0  0  0  0  0
   26.6574   10.7193  -13.1824 H   0  0  0  0  0  0  0  0  0  0  0  0
   26.6329    8.9231  -13.1824 H   0  0  0  0  0  0  0  0  0  0  0  0
   24.1637    6.4692   -5.6149 H   0  0  0  0  0  0  0  0  0  0  0  0
   24.8155    8.2896   -3.3073 H   0  0  0  0  0  0  0  0  0  0  0  0
   21.9394    8.4125   -6.5026 H   0  0  0  0  0  0  0  0  0  0  0  0
   19.3194    9.5984   -2.5057 H   0  0  0  0  0  0  0  0  0  0  0  0
   19.7137   11.0024   -1.3284 H   0  0  0  0  0  0  0  0  0  0  0  0
   18.0109   11.0324   -3.7640 H   0  0  0  0  0  0  0  0  0  0  0  0
   17.5965   11.6185   -2.2584 H   0  0  0  0  0  0  0  0  0  0  0  0
   19.3245   13.1379   -4.1507 H   0  0  0  0  0  0  0  0  0  0  0  0
   19.4886   13.4273   -2.3715 H   0  0  0  0  0  0  0  0  0  0  0  0
   21.5399   12.7245   -2.4602 H   0  0  0  0  0  0  0  0  0  0  0  0
   21.3752   12.3831   -4.2099 H   0  0  0  0  0  0  0  0  0  0  0  0
   20.0011    9.7902   -6.1693 H   0  0  0  0  0  0  0  0  0  0  0  0
  1  7  1  0
  1  2  2  0
  1  5  1  0
  2  3  1  0
  2 19  1  0
  3  4  1  0
  4  8  2  0
  4  6  1  0
  6 10  1  0
  6  7  2  0
  8  9  1  0
  9 12  1  0
  9 10  2  0
 12 13  1  0
 13 17  1  0
 13 14  2  0
 14 15  1  0
 15 16  2  0
 16 17  1  0
 17 18  1  0
  5 11  1  0
 19 20  1  0
 20 25  1  0
 20 21  2  0
 21 22  1  0
 22 23  2  0
 23 24  1  0
 23 26  1  0
 24 25  2  0
 24 31  1  0
 26 30  1  0
 26 27  1  0
 27 28  1  0
 28 29  1  0
 29 30  1  0
  3 32  1  0
  7 33  1  0
 10 34  1  0
 11 35  1  1
 11 36  1  0
 11 37  1  0
 12 38  1  0
 15 39  1  0
 16 40  1  0
 18 41  1  1
 18 42  1  0
 18 43  1  0
 19 44  1  0
 21 45  1  0
 25 46  1  0
 27 47  1  1
 27 48  1  0
 28 49  1  6
 28 50  1  0
 29 51  1  6
 29 52  1  0
 30 53  1  1
 30 54  1  0
 31 55  1  0
M  END
>  <Pose ID>  (93)
91

>  <Score>  (93)
-6.763681411743164

>  <smiles>  (93)
COc1cc2cc(Nc3nccn3C)nc-2[nH]c1Nc1cnc(N2CCCC2)c(O)c1

$$$$

     RDKit          3D

 42 45  0  0  0  0  0  0  0  0999 V2000
   25.2520    9.6770   -6.6360 C   0  0  0  0  0  0  0  0  0  0  0  0
   24.9720    8.3420   -6.3570 C   0  0  0  0  0  0  0  0  0  0  0  0
   25.5130    7.3380   -7.1490 N   0  0  0  0  0  0  0  0  0  0  0  0
   26.3360    7.6670   -8.2230 C   0  0  0  0  0  0  0  0  0  0  0  0
   24.8660   10.7690   -6.0370 O   0  0  0  0  0  0  0  0  0  0  0  0
   26.6160    8.9970   -8.5010 C   0  0  0  0  0  0  0  0  0  0  0  0
   26.0760   10.0040   -7.7080 C   0  0  0  0  0  0  0  0  0  0  0  0
   26.9660    6.8840   -9.1180 N   0  0  0  0  0  0  0  0  0  0  0  0
   27.6610    7.6880   -9.9930 C   0  0  0  0  0  0  0  0  0  0  0  0
   27.3370    8.9630   -9.4820 C   0  0  0  0  0  0  0  0  0  0  0  0
   25.8750   11.3390   -5.2120 C   0  0  1  0  0  0  0  0  0  0  0  0
   28.4780    7.5210  -11.0860 N   0  0  0  0  0  0  0  0  0  0  0  0
   29.0100    8.5980  -11.7120 C   0  0  0  0  0  0  0  0  0  0  0  0
   30.4010    8.8040  -11.8700 N   0  0  0  0  0  0  0  0  0  0  0  0
   30.5810   10.0050  -12.5670 C   0  0  0  0  0  0  0  0  0  0  0  0
   29.2320   10.3940  -12.7570 C   0  0  0  0  0  0  0  0  0  0  0  0
   28.2980    9.5530  -12.2590 N   0  0  0  0  0  0  0  0  0  0  0  0
   26.8340    9.7210  -12.3620 C   0  0  1  0  0  0  0  0  0  0  0  0
   24.1420    8.0110   -5.2700 C   0  0  0  0  0  0  0  0  0  0  0  0
   23.0480    7.1270   -5.2460 C   0  0  0  0  0  0  0  0  0  0  0  0
   24.2060    8.5660   -4.0920 N   0  0  0  0  0  0  0  0  0  0  0  0
   22.5380    7.1490   -3.8860 C   0  0  0  0  0  0  0  0  0  0  0  0
   23.2620    8.1360   -3.3460 N   0  0  0  0  0  0  0  0  0  0  0  0
   23.0810    8.6310   -1.9580 C   0  0  1  0  0  0  0  0  0  0  0  0
   22.5640    6.3960   -6.2910 O   0  0  0  0  0  0  0  0  0  0  0  0
   25.3057    6.3505   -6.9422 H   0  0  0  0  0  0  0  0  0  0  0  0
   26.3003   11.0581   -7.9283 H   0  0  0  0  0  0  0  0  0  0  0  0
   27.7181    9.8836   -9.9482 H   0  0  0  0  0  0  0  0  0  0  0  0
   25.6114   11.1901   -4.1545 H   0  0  0  0  0  0  0  0  0  0  0  0
   26.8387   10.8518   -5.4218 H   0  0  0  0  0  0  0  0  0  0  0  0
   25.9552   12.4158   -5.4218 H   0  0  0  0  0  0  0  0  0  0  0  0
   28.6865    6.5729  -11.4303 H   0  0  0  0  0  0  0  0  0  0  0  0
   31.5092   10.5059  -12.8794 H   0  0  0  0  0  0  0  0  0  0  0  0
   28.9610   11.3240  -13.2782 H   0  0  0  0  0  0  0  0  0  0  0  0
   26.3988    9.7709  -11.3530 H   0  0  0  0  0  0  0  0  0  0  0  0
   26.6089   10.6509  -12.9049 H   0  0  0  0  0  0  0  0  0  0  0  0
   26.4041    8.8663  -12.9049 H   0  0  0  0  0  0  0  0  0  0  0  0
   21.7625    6.5210   -3.4231 H   0  0  0  0  0  0  0  0  0  0  0  0
   23.3693    7.8427   -1.2471 H   0  0  0  0  0  0  0  0  0  0  0  0
   23.7133    9.5170   -1.7993 H   0  0  0  0  0  0  0  0  0  0  0  0
   22.0263    8.9001   -1.7993 H   0  0  0  0  0  0  0  0  0  0  0  0
   21.7831    5.8018   -6.1598 H   0  0  0  0  0  0  0  0  0  0  0  0
  1  7  1  0
  1  2  2  0
  1  5  1  0
  2  3  1  0
  2 19  1  0
  3  4  1  0
  4  8  2  0
  4  6  1  0
  6 10  1  0
  6  7  2  0
  8  9  1  0
  9 12  1  0
  9 10  2  0
 12 13  1  0
 13 17  1  0
 13 14  2  0
 14 15  1  0
 15 16  2  0
 16 17  1  0
 17 18  1  0
 19 20  1  0
 19 21  2  0
 20 25  1  0
 20 22  2  0
 21 23  1  0
 22 23  1  0
 23 24  1  0
  5 11  1  0
  3 26  1  0
  7 27  1  0
 10 28  1  0
 11 29  1  1
 11 30  1  0
 11 31  1  0
 12 32  1  0
 15 33  1  0
 16 34  1  0
 18 35  1  1
 18 36  1  0
 18 37  1  0
 22 38  1  0
 24 39  1  1
 24 40  1  0
 24 41  1  0
 25 42  1  0
M  END
>  <Pose ID>  (94)
3

>  <Score>  (94)
-6.755749225616455

>  <smiles>  (94)
COc1cc2cc(Nc3nccn3C)nc-2[nH]c1-c1nn(C)cc1O

$$$$

     RDKit          3D

 44 47  0  0  0  0  0  0  0  0999 V2000
   25.3670    9.5460   -6.8370 C   0  0  0  0  0  0  0  0  0  0  0  0
   25.3100    8.1810   -6.5780 C   0  0  0  0  0  0  0  0  0  0  0  0
   25.9810    7.2870   -7.4020 N   0  0  0  0  0  0  0  0  0  0  0  0
   26.7190    7.7640   -8.4850 C   0  0  0  0  0  0  0  0  0  0  0  0
   24.8260   10.5560   -6.2090 O   0  0  0  0  0  0  0  0  0  0  0  0
   26.7790    9.1250   -8.7400 C   0  0  0  0  0  0  0  0  0  0  0  0
   26.1050   10.0180   -7.9180 C   0  0  0  0  0  0  0  0  0  0  0  0
   27.4460    7.1050   -9.4060 N   0  0  0  0  0  0  0  0  0  0  0  0
   27.9850    8.0230  -10.2790 C   0  0  0  0  0  0  0  0  0  0  0  0
   27.4710    9.2200   -9.7350 C   0  0  0  0  0  0  0  0  0  0  0  0
   25.7510   11.2630   -5.3910 C   0  0  1  0  0  0  0  0  0  0  0  0
   28.7920    8.0080  -11.3920 N   0  0  0  0  0  0  0  0  0  0  0  0
   29.1290    9.1660  -12.0070 C   0  0  0  0  0  0  0  0  0  0  0  0
   30.4660    9.5940  -12.1870 N   0  0  0  0  0  0  0  0  0  0  0  0
   30.4400   10.8210  -12.8660 C   0  0  0  0  0  0  0  0  0  0  0  0
   29.0410   10.9930  -13.0190 C   0  0  0  0  0  0  0  0  0  0  0  0
   28.2630   10.0040  -12.5200 N   0  0  0  0  0  0  0  0  0  0  0  0
   26.7910    9.9400  -12.5890 C   0  0  1  0  0  0  0  0  0  0  0  0
   24.5880    7.7160   -5.5140 N   0  0  0  0  0  0  0  0  0  0  0  0
   24.5310    6.3750   -5.2590 C   0  0  0  0  0  0  0  0  0  0  0  0
   23.7710    6.3060   -4.1310 C   0  0  0  0  0  0  0  0  0  0  0  0
   23.4890    4.8720   -3.5610 N   0  0  0  0  0  0  0  0  0  0  0  0
   23.8870    8.3810   -4.5670 C   0  0  0  0  0  0  0  0  0  0  0  0
   23.3380    7.5030   -3.7810 C   0  0  0  0  0  0  0  0  0  0  0  0
   22.1510    4.5640   -3.1110 C   0  0  1  0  0  0  0  0  0  0  0  0
   25.9338    6.2754   -7.2140 H   0  0  0  0  0  0  0  0  0  0  0  0
   26.1544   11.0979   -8.1212 H   0  0  0  0  0  0  0  0  0  0  0  0
   27.6874   10.1969  -10.1919 H   0  0  0  0  0  0  0  0  0  0  0  0
   25.5157   11.0831   -4.3316 H   0  0  0  0  0  0  0  0  0  0  0  0
   26.7716   10.9126   -5.6045 H   0  0  0  0  0  0  0  0  0  0  0  0
   25.6808   12.3398   -5.6045 H   0  0  0  0  0  0  0  0  0  0  0  0
   29.1418    7.1117  -11.7596 H   0  0  0  0  0  0  0  0  0  0  0  0
   31.2699   11.4669  -13.1885 H   0  0  0  0  0  0  0  0  0  0  0  0
   28.6133   11.8775  -13.5137 H   0  0  0  0  0  0  0  0  0  0  0  0
   26.3766    9.9220  -11.5702 H   0  0  0  0  0  0  0  0  0  0  0  0
   26.4103   10.8224  -13.1241 H   0  0  0  0  0  0  0  0  0  0  0  0
   26.4883    9.0278  -13.1241 H   0  0  0  0  0  0  0  0  0  0  0  0
   24.9880    5.5511   -5.8268 H   0  0  0  0  0  0  0  0  0  0  0  0
   24.2388    4.1677   -3.5088 H   0  0  0  0  0  0  0  0  0  0  0  0
   23.7973    9.4737   -4.4777 H   0  0  0  0  0  0  0  0  0  0  0  0
   22.6336    7.7202   -2.9645 H   0  0  0  0  0  0  0  0  0  0  0  0
   22.1262    4.5583   -2.0113 H   0  0  0  0  0  0  0  0  0  0  0  0
   21.4526    5.3249   -3.4896 H   0  0  0  0  0  0  0  0  0  0  0  0
   21.8555    3.5744   -3.4896 H   0  0  0  0  0  0  0  0  0  0  0  0
  1  7  1  0
  1  2  2  0
  1  5  1  0
  2  3  1  0
  2 19  1  0
  3  4  1  0
  4  8  2  0
  4  6  1  0
  6 10  1  0
  6  7  2  0
  8  9  1  0
  9 12  1  0
  9 10  2  0
 12 13  1  0
 13 17  1  0
 13 14  2  0
 14 15  1  0
 15 16  2  0
 16 17  1  0
 17 18  1  0
 19 20  1  0
 19 23  1  0
 20 21  2  0
 21 24  1  0
 21 22  1  0
 23 24  2  0
 22 25  1  0
  5 11  1  0
  3 26  1  0
  7 27  1  0
 10 28  1  0
 11 29  1  1
 11 30  1  0
 11 31  1  0
 12 32  1  0
 15 33  1  0
 16 34  1  0
 18 35  1  1
 18 36  1  0
 18 37  1  0
 20 38  1  0
 22 39  1  0
 23 40  1  0
 24 41  1  0
 25 42  1  1
 25 43  1  0
 25 44  1  0
M  END
>  <Pose ID>  (95)
111

>  <Score>  (95)
-6.749308109283447

>  <smiles>  (95)
CNc1ccn(-c2[nH]c3nc(Nc4nccn4C)cc-3cc2OC)c1

$$$$

     RDKit          3D

 39 41  0  0  0  0  0  0  0  0999 V2000
   25.3850    9.7500   -6.7200 C   0  0  0  0  0  0  0  0  0  0  0  0
   25.2170    8.4020   -6.4160 C   0  0  0  0  0  0  0  0  0  0  0  0
   25.8180    7.4310   -7.2040 N   0  0  0  0  0  0  0  0  0  0  0  0
   26.5930    7.8070   -8.2980 C   0  0  0  0  0  0  0  0  0  0  0  0
   24.9260   10.8190   -6.1300 O   0  0  0  0  0  0  0  0  0  0  0  0
   26.7620    9.1510   -8.6010 C   0  0  0  0  0  0  0  0  0  0  0  0
   26.1590   10.1220   -7.8140 C   0  0  0  0  0  0  0  0  0  0  0  0
   27.2670    7.0610   -9.1960 N   0  0  0  0  0  0  0  0  0  0  0  0
   27.8790    7.9020  -10.0960 C   0  0  0  0  0  0  0  0  0  0  0  0
   27.4650    9.1550   -9.5960 C   0  0  0  0  0  0  0  0  0  0  0  0
   25.9020   11.4780   -5.3330 C   0  0  1  0  0  0  0  0  0  0  0  0
   28.6850    7.7850  -11.2030 N   0  0  0  0  0  0  0  0  0  0  0  0
   29.1150    8.8910  -11.8560 C   0  0  0  0  0  0  0  0  0  0  0  0
   30.4840    9.2040  -12.0450 N   0  0  0  0  0  0  0  0  0  0  0  0
   30.5560   10.4050  -12.7640 C   0  0  0  0  0  0  0  0  0  0  0  0
   29.1760   10.6820  -12.9320 C   0  0  0  0  0  0  0  0  0  0  0  0
   28.3210    9.7780  -12.4020 N   0  0  0  0  0  0  0  0  0  0  0  0
   26.8480    9.8270  -12.4760 C   0  0  1  0  0  0  0  0  0  0  0  0
   24.4220    8.2900   -5.3010 N   0  0  0  0  0  0  0  0  0  0  0  0
   23.9210    7.0650   -4.8740 C   0  0  0  0  0  0  0  0  0  0  0  0
   24.2600    6.0110   -5.3460 O   0  0  0  0  0  0  0  0  0  0  0  0
   22.9020    7.2200   -3.7860 C   0  0  1  0  0  0  0  0  0  0  0  0
   21.8360    6.3550   -4.2190 O   0  0  0  0  0  0  0  0  0  0  0  0
   25.6911    6.4337   -6.9801 H   0  0  0  0  0  0  0  0  0  0  0  0
   26.2933   11.1867   -8.0556 H   0  0  0  0  0  0  0  0  0  0  0  0
   27.7641   10.0946  -10.0835 H   0  0  0  0  0  0  0  0  0  0  0  0
   25.6719   11.3227   -4.2686 H   0  0  0  0  0  0  0  0  0  0  0  0
   26.8971   11.0662   -5.5569 H   0  0  0  0  0  0  0  0  0  0  0  0
   25.8919   12.5549   -5.5569 H   0  0  0  0  0  0  0  0  0  0  0  0
   28.9635    6.8516  -11.5378 H   0  0  0  0  0  0  0  0  0  0  0  0
   31.4354   10.9725  -13.1025 H   0  0  0  0  0  0  0  0  0  0  0  0
   28.8217   11.5786  -13.4617 H   0  0  0  0  0  0  0  0  0  0  0  0
   26.4300    9.8409  -11.4586 H   0  0  0  0  0  0  0  0  0  0  0  0
   26.5378   10.7360  -13.0123 H   0  0  0  0  0  0  0  0  0  0  0  0
   26.4781    8.9407  -13.0123 H   0  0  0  0  0  0  0  0  0  0  0  0
   24.1902    9.1387   -4.7654 H   0  0  0  0  0  0  0  0  0  0  0  0
   23.3062    6.8951   -2.8159 H   0  0  0  0  0  0  0  0  0  0  0  0
   22.5824    8.2617   -3.6351 H   0  0  0  0  0  0  0  0  0  0  0  0
   21.3736    5.9798   -3.4281 H   0  0  0  0  0  0  0  0  0  0  0  0
  1  7  1  0
  1  2  2  0
  1  5  1  0
  2  3  1  0
  2 19  1  0
  3  4  1  0
  4  8  2  0
  4  6  1  0
  6 10  1  0
  6  7  2  0
  8  9  1  0
  9 12  1  0
  9 10  2  0
 12 13  1  0
 13 17  1  0
 13 14  2  0
 14 15  1  0
 15 16  2  0
 16 17  1  0
 17 18  1  0
 19 20  1  0
 20 21  2  0
 20 22  1  0
 22 23  1  0
  5 11  1  0
  3 24  1  0
  7 25  1  0
 10 26  1  0
 11 27  1  1
 11 28  1  0
 11 29  1  0
 12 30  1  0
 15 31  1  0
 16 32  1  0
 18 33  1  1
 18 34  1  0
 18 35  1  0
 19 36  1  0
 22 37  1  1
 22 38  1  0
 23 39  1  0
M  END
>  <Pose ID>  (96)
118

>  <Score>  (96)
-6.744479179382324

>  <smiles>  (96)
COc1cc2cc(Nc3nccn3C)nc-2[nH]c1NC(=O)CO

$$$$

     RDKit          3D

 51 54  0  0  0  0  0  0  0  0999 V2000
   25.1580    9.1650   -6.6180 C   0  0  0  0  0  0  0  0  0  0  0  0
   25.1000    7.7910   -6.4000 C   0  0  0  0  0  0  0  0  0  0  0  0
   25.7570    6.9210   -7.2590 N   0  0  0  0  0  0  0  0  0  0  0  0
   26.4790    7.4250   -8.3410 C   0  0  0  0  0  0  0  0  0  0  0  0
   24.6310   10.1570   -5.9530 O   0  0  0  0  0  0  0  0  0  0  0  0
   26.5370    8.7940   -8.5580 C   0  0  0  0  0  0  0  0  0  0  0  0
   25.8800    9.6640   -7.6990 C   0  0  0  0  0  0  0  0  0  0  0  0
   27.1870    6.7910   -9.2930 N   0  0  0  0  0  0  0  0  0  0  0  0
   27.7130    7.7340  -10.1460 C   0  0  0  0  0  0  0  0  0  0  0  0
   27.2160    8.9160   -9.5610 C   0  0  0  0  0  0  0  0  0  0  0  0
   25.5710   10.8370   -5.1310 C   0  0  1  0  0  0  0  0  0  0  0  0
   28.5030    7.7490  -11.2730 N   0  0  0  0  0  0  0  0  0  0  0  0
   28.8340    8.9250  -11.8610 C   0  0  0  0  0  0  0  0  0  0  0  0
   30.1690    9.3530  -12.0500 N   0  0  0  0  0  0  0  0  0  0  0  0
   30.1350   10.5970  -12.6920 C   0  0  0  0  0  0  0  0  0  0  0  0
   28.7350   10.7790  -12.8190 C   0  0  0  0  0  0  0  0  0  0  0  0
   27.9620    9.7810  -12.3340 N   0  0  0  0  0  0  0  0  0  0  0  0
   26.4900    9.7190  -12.3810 C   0  0  1  0  0  0  0  0  0  0  0  0
   24.3230    7.2470   -5.2280 C   0  0  1  0  0  0  0  0  0  0  0  0
   22.8340    7.1040   -5.5330 C   0  0  0  0  0  0  0  0  0  0  0  0
   22.4830    6.5360   -6.5390 O   0  0  0  0  0  0  0  0  0  0  0  0
   21.9090    7.6160   -4.6310 N   0  0  0  0  0  0  0  0  0  0  0  0
   21.0210    8.5890   -5.0330 C   0  0  0  0  0  0  0  0  0  0  0  0
   21.8860    7.1840   -3.2410 C   0  0  1  0  0  0  0  0  0  0  0  0
   20.4710    7.3040   -2.6030 C   0  0  1  0  0  0  0  0  0  0  0  0
   19.9300    9.3150   -4.3590 C   0  0  1  0  0  0  0  0  0  0  0  0
   18.9290    8.2710   -3.9770 N   0  0  0  0  0  0  0  0  0  0  0  0
   19.3160    7.3390   -3.0720 C   0  0  0  0  0  0  0  0  0  0  0  0
   21.2250    8.9720   -6.3750 O   0  0  0  0  0  0  0  0  0  0  0  0
   18.3270    6.4690   -2.7450 O   0  0  0  0  0  0  0  0  0  0  0  0
   25.7115    5.9047   -7.0978 H   0  0  0  0  0  0  0  0  0  0  0  0
   25.9297   10.7491   -7.8724 H   0  0  0  0  0  0  0  0  0  0  0  0
   27.4321    9.9049   -9.9916 H   0  0  0  0  0  0  0  0  0  0  0  0
   25.3276   10.6609   -4.0728 H   0  0  0  0  0  0  0  0  0  0  0  0
   26.5827   10.4604   -5.3421 H   0  0  0  0  0  0  0  0  0  0  0  0
   25.5299   11.9158   -5.3421 H   0  0  0  0  0  0  0  0  0  0  0  0
   28.8443    6.8627  -11.6715 H   0  0  0  0  0  0  0  0  0  0  0  0
   30.9621   11.2494  -13.0087 H   0  0  0  0  0  0  0  0  0  0  0  0
   28.3034   11.6777  -13.2839 H   0  0  0  0  0  0  0  0  0  0  0  0
   26.0908    9.7022  -11.3561 H   0  0  0  0  0  0  0  0  0  0  0  0
   26.1026   10.6016  -12.9110 H   0  0  0  0  0  0  0  0  0  0  0  0
   26.1782    8.8069  -12.9110 H   0  0  0  0  0  0  0  0  0  0  0  0
   24.7264    6.2579   -4.9652 H   0  0  0  0  0  0  0  0  0  0  0  0
   24.4281    7.9591   -4.3962 H   0  0  0  0  0  0  0  0  0  0  0  0
   22.2067    6.1329   -3.1929 H   0  0  0  0  0  0  0  0  0  0  0  0
   22.5643    7.8400   -2.6757 H   0  0  0  0  0  0  0  0  0  0  0  0
   20.4347    6.4486   -1.9124 H   0  0  0  0  0  0  0  0  0  0  0  0
   20.5366    8.3825   -2.3968 H   0  0  0  0  0  0  0  0  0  0  0  0
   20.3075    9.8310   -3.4639 H   0  0  0  0  0  0  0  0  0  0  0  0
   19.4886   10.0835   -5.0106 H   0  0  0  0  0  0  0  0  0  0  0  0
   17.9835    8.2608   -4.3854 H   0  0  0  0  0  0  0  0  0  0  0  0
  1  7  1  0
  1  2  2  0
  1  5  1  0
  2  3  1  0
  2 19  1  0
  3  4  1  0
  4  8  2  0
  4  6  1  0
  6 10  1  0
  6  7  2  0
  8  9  1  0
  9 12  1  0
  9 10  2  0
 12 13  1  0
 13 17  1  0
 13 14  2  0
 14 15  1  0
 15 16  2  0
 16 17  1  0
 17 18  1  0
  5 11  1  0
 19 20  1  0
 20 21  2  0
 20 22  1  0
 22 23  1  0
 22 24  1  0
 23 29  2  0
 23 26  1  0
 24 25  1  0
 25 28  1  0
 26 27  1  0
 27 28  1  0
 28 30  2  0
  3 31  1  0
  7 32  1  0
 10 33  1  0
 11 34  1  1
 11 35  1  0
 11 36  1  0
 12 37  1  0
 15 38  1  0
 16 39  1  0
 18 40  1  1
 18 41  1  0
 18 42  1  0
 19 43  1  1
 19 44  1  0
 24 45  1  6
 24 46  1  0
 25 47  1  1
 25 48  1  0
 26 49  1  1
 26 50  1  0
 27 51  1  0
M  END
>  <Pose ID>  (97)
134

>  <Score>  (97)
-6.7041707038879395

>  <smiles>  (97)
COc1cc2cc(Nc3nccn3C)nc-2[nH]c1CC(=O)N1CCC(=O)NCC1=O

$$$$

     RDKit          3D

 48 51  0  0  0  0  0  0  0  0999 V2000
   25.1630    9.3220   -6.8900 C   0  0  0  0  0  0  0  0  0  0  0  0
   25.0350    7.9510   -6.6750 C   0  0  0  0  0  0  0  0  0  0  0  0
   25.6980    7.0530   -7.4990 N   0  0  0  0  0  0  0  0  0  0  0  0
   26.4950    7.5240   -8.5400 C   0  0  0  0  0  0  0  0  0  0  0  0
   24.6440   10.3350   -6.2530 O   0  0  0  0  0  0  0  0  0  0  0  0
   26.6250    8.8890   -8.7520 C   0  0  0  0  0  0  0  0  0  0  0  0
   25.9610    9.7890   -7.9300 C   0  0  0  0  0  0  0  0  0  0  0  0
   27.2260    6.8580   -9.4550 N   0  0  0  0  0  0  0  0  0  0  0  0
   27.8400    7.7760  -10.2790 C   0  0  0  0  0  0  0  0  0  0  0  0
   27.3600    8.9790   -9.7200 C   0  0  0  0  0  0  0  0  0  0  0  0
   25.5690   10.9760   -5.3800 C   0  0  1  0  0  0  0  0  0  0  0  0
   28.6850    7.7540  -11.3620 N   0  0  0  0  0  0  0  0  0  0  0  0
   29.0980    8.9130  -11.9290 C   0  0  0  0  0  0  0  0  0  0  0  0
   30.4610    9.2850  -12.0470 N   0  0  0  0  0  0  0  0  0  0  0  0
   30.5130   10.5300  -12.6880 C   0  0  0  0  0  0  0  0  0  0  0  0
   29.1290   10.7690  -12.8900 C   0  0  0  0  0  0  0  0  0  0  0  0
   28.2920    9.8060  -12.4470 N   0  0  0  0  0  0  0  0  0  0  0  0
   26.8220    9.8090  -12.5710 C   0  0  1  0  0  0  0  0  0  0  0  0
   24.1880    7.4520   -5.5630 C   0  0  0  0  0  0  0  0  0  0  0  0
   23.6780    6.3340   -5.5940 O   0  0  0  0  0  0  0  0  0  0  0  0
   23.9020    8.2610   -4.4030 N   0  0  0  0  0  0  0  0  0  0  0  0
   23.3250    7.8130   -3.2750 C   0  0  0  0  0  0  0  0  0  0  0  0
   22.3410    8.5950   -2.6830 N   0  0  0  0  0  0  0  0  0  0  0  0
   21.7170    8.1660   -1.5170 C   0  0  0  0  0  0  0  0  0  0  0  0
   22.0790    6.9540   -0.9440 C   0  0  0  0  0  0  0  0  0  0  0  0
   23.0620    6.1700   -1.5350 C   0  0  0  0  0  0  0  0  0  0  0  0
   23.6630    6.5870   -2.7180 C   0  0  0  0  0  0  0  0  0  0  0  0
   23.4780    4.8680   -0.8950 C   0  0  1  0  0  0  0  0  0  0  0  0
   22.7180    3.6680   -1.3680 O   0  0  0  0  0  0  0  0  0  0  0  0
   21.2760    6.4010    0.5570 Cl  0  0  0  0  0  0  0  0  0  0  0  0
   25.6011    6.0398   -7.3413 H   0  0  0  0  0  0  0  0  0  0  0  0
   26.0655   10.8707   -8.1005 H   0  0  0  0  0  0  0  0  0  0  0  0
   27.6374    9.9570  -10.1401 H   0  0  0  0  0  0  0  0  0  0  0  0
   25.2846   10.7790   -4.3358 H   0  0  0  0  0  0  0  0  0  0  0  0
   26.5799   10.5838   -5.5650 H   0  0  0  0  0  0  0  0  0  0  0  0
   25.5568   12.0603   -5.5650 H   0  0  0  0  0  0  0  0  0  0  0  0
   29.0057    6.8530  -11.7443 H   0  0  0  0  0  0  0  0  0  0  0  0
   31.3819   11.1479  -12.9584 H   0  0  0  0  0  0  0  0  0  0  0  0
   28.7601   11.6833  -13.3779 H   0  0  0  0  0  0  0  0  0  0  0  0
   26.3695    9.8099  -11.5684 H   0  0  0  0  0  0  0  0  0  0  0  0
   26.5020   10.7078  -13.1185 H   0  0  0  0  0  0  0  0  0  0  0  0
   26.4984    8.9115  -13.1185 H   0  0  0  0  0  0  0  0  0  0  0  0
   24.1596    9.2575   -4.4425 H   0  0  0  0  0  0  0  0  0  0  0  0
   20.9378    8.7856   -1.0491 H   0  0  0  0  0  0  0  0  0  0  0  0
   24.4067    5.9449   -3.2127 H   0  0  0  0  0  0  0  0  0  0  0  0
   24.5443    4.7053   -1.1108 H   0  0  0  0  0  0  0  0  0  0  0  0
   23.2644    4.9676    0.1795 H   0  0  0  0  0  0  0  0  0  0  0  0
   22.3927    3.1544   -0.5867 H   0  0  0  0  0  0  0  0  0  0  0  0
  1  7  1  0
  1  2  2  0
  1  5  1  0
  2  3  1  0
  2 19  1  0
  3  4  1  0
  4  8  2  0
  4  6  1  0
  6 10  1  0
  6  7  2  0
  8  9  1  0
  9 12  1  0
  9 10  2  0
 19 20  2  0
 19 21  1  0
 21 22  1  0
 22 27  1  0
 22 23  2  0
 23 24  1  0
 24 25  2  0
 25 26  1  0
 25 30  1  0
 26 27  2  0
 26 28  1  0
 28 29  1  0
 12 13  1  0
 13 17  1  0
 13 14  2  0
 14 15  1  0
 15 16  2  0
 16 17  1  0
 17 18  1  0
  5 11  1  0
  3 31  1  0
  7 32  1  0
 10 33  1  0
 11 34  1  1
 11 35  1  0
 11 36  1  0
 12 37  1  0
 15 38  1  0
 16 39  1  0
 18 40  1  1
 18 41  1  0
 18 42  1  0
 21 43  1  0
 24 44  1  0
 27 45  1  0
 28 46  1  1
 28 47  1  0
 29 48  1  0
M  END
>  <Pose ID>  (98)
82

>  <Score>  (98)
-6.684311866760254

>  <smiles>  (98)
COc1cc2cc(Nc3nccn3C)nc-2[nH]c1C(=O)Nc1cc(CO)c(Cl)cn1

$$$$

     RDKit          3D

 42 45  0  0  0  0  0  0  0  0999 V2000
   25.1780    9.4560   -6.8800 C   0  0  0  0  0  0  0  0  0  0  0  0
   25.0250    8.0940   -6.6370 C   0  0  0  0  0  0  0  0  0  0  0  0
   25.6780    7.1660   -7.4350 N   0  0  0  0  0  0  0  0  0  0  0  0
   26.4900    7.5980   -8.4800 C   0  0  0  0  0  0  0  0  0  0  0  0
   24.6710   10.4920   -6.2700 O   0  0  0  0  0  0  0  0  0  0  0  0
   26.6460    8.9550   -8.7220 C   0  0  0  0  0  0  0  0  0  0  0  0
   25.9910    9.8850   -7.9250 C   0  0  0  0  0  0  0  0  0  0  0  0
   27.2170    6.9010   -9.3730 N   0  0  0  0  0  0  0  0  0  0  0  0
   27.8510    7.7890  -10.2140 C   0  0  0  0  0  0  0  0  0  0  0  0
   27.3890    9.0140   -9.6850 C   0  0  0  0  0  0  0  0  0  0  0  0
   25.6000   11.1370   -5.4060 C   0  0  1  0  0  0  0  0  0  0  0  0
   28.7050    7.7300  -11.2880 N   0  0  0  0  0  0  0  0  0  0  0  0
   29.1410    8.8680  -11.8780 C   0  0  0  0  0  0  0  0  0  0  0  0
   30.5090    9.2120  -11.9950 N   0  0  0  0  0  0  0  0  0  0  0  0
   30.5900   10.4420  -12.6640 C   0  0  0  0  0  0  0  0  0  0  0  0
   29.2140   10.7000  -12.8790 C   0  0  0  0  0  0  0  0  0  0  0  0
   28.3540    9.7610  -12.4240 N   0  0  0  0  0  0  0  0  0  0  0  0
   26.8850    9.7880  -12.5590 C   0  0  1  0  0  0  0  0  0  0  0  0
   24.2450    7.4400   -5.6630 C   0  0  0  0  0  0  0  0  0  0  0  0
   23.1040    8.0560   -5.1650 N   0  0  0  0  0  0  0  0  0  0  0  0
   22.3630    7.4400   -4.1610 C   0  0  0  0  0  0  0  0  0  0  0  0
   24.6480    6.2090   -5.1580 C   0  0  0  0  0  0  0  0  0  0  0  0
   22.7660    6.2100   -3.6570 C   0  0  0  0  0  0  0  0  0  0  0  0
   23.8930    5.5770   -4.1450 N   0  0  0  0  0  0  0  0  0  0  0  0
   21.9620    5.5560   -2.5620 C   0  0  1  0  0  0  0  0  0  0  0  0
   25.5622    6.1586   -7.2546 H   0  0  0  0  0  0  0  0  0  0  0  0
   26.1148   10.9605   -8.1197 H   0  0  0  0  0  0  0  0  0  0  0  0
   27.6868    9.9781  -10.1230 H   0  0  0  0  0  0  0  0  0  0  0  0
   25.3222   10.9441   -4.3593 H   0  0  0  0  0  0  0  0  0  0  0  0
   26.6101   10.7449   -5.5955 H   0  0  0  0  0  0  0  0  0  0  0  0
   25.5857   12.2205   -5.5955 H   0  0  0  0  0  0  0  0  0  0  0  0
   29.0153    6.8156  -11.6464 H   0  0  0  0  0  0  0  0  0  0  0  0
   31.4719   11.0374  -12.9427 H   0  0  0  0  0  0  0  0  0  0  0  0
   28.8652   11.6114  -13.3867 H   0  0  0  0  0  0  0  0  0  0  0  0
   26.4251    9.7965  -11.5598 H   0  0  0  0  0  0  0  0  0  0  0  0
   26.5839   10.6918  -13.1089 H   0  0  0  0  0  0  0  0  0  0  0  0
   26.5509    8.8958  -13.1089 H   0  0  0  0  0  0  0  0  0  0  0  0
   21.4588    7.9268   -3.7668 H   0  0  0  0  0  0  0  0  0  0  0  0
   25.5563    5.7263   -5.5479 H   0  0  0  0  0  0  0  0  0  0  0  0
   22.3508    5.8722   -1.5828 H   0  0  0  0  0  0  0  0  0  0  0  0
   20.9076    5.8560   -2.6522 H   0  0  0  0  0  0  0  0  0  0  0  0
   22.0411    4.4626   -2.6522 H   0  0  0  0  0  0  0  0  0  0  0  0
  1  7  1  0
  1  2  2  0
  1  5  1  0
  2  3  1  0
  2 19  1  0
  3  4  1  0
  4  8  2  0
  4  6  1  0
  6 10  1  0
  6  7  2  0
  8  9  1  0
  9 12  1  0
  9 10  2  0
 12 13  1  0
 13 17  1  0
 13 14  2  0
 14 15  1  0
 15 16  2  0
 16 17  1  0
 17 18  1  0
 19 20  2  0
 19 22  1  0
 20 21  1  0
 21 23  2  0
 22 24  2  0
 23 24  1  0
 23 25  1  0
  5 11  1  0
  3 26  1  0
  7 27  1  0
 10 28  1  0
 11 29  1  1
 11 30  1  0
 11 31  1  0
 12 32  1  0
 15 33  1  0
 16 34  1  0
 18 35  1  1
 18 36  1  0
 18 37  1  0
 21 38  1  0
 22 39  1  0
 25 40  1  1
 25 41  1  0
 25 42  1  0
M  END
>  <Pose ID>  (99)
45

>  <Score>  (99)
-6.658980369567871

>  <smiles>  (99)
COc1cc2cc(Nc3nccn3C)nc-2[nH]c1-c1cnc(C)cn1

$$$$

     RDKit          3D

 38 40  0  0  0  0  0  0  0  0999 V2000
   25.1580    9.3400   -6.9330 C   0  0  0  0  0  0  0  0  0  0  0  0
   25.0200    7.9700   -6.7290 C   0  0  0  0  0  0  0  0  0  0  0  0
   25.6840    7.0730   -7.5530 N   0  0  0  0  0  0  0  0  0  0  0  0
   26.4950    7.5460   -8.5830 C   0  0  0  0  0  0  0  0  0  0  0  0
   24.6400   10.3530   -6.2930 O   0  0  0  0  0  0  0  0  0  0  0  0
   26.6350    8.9110   -8.7850 C   0  0  0  0  0  0  0  0  0  0  0  0
   25.9690    9.8090   -7.9620 C   0  0  0  0  0  0  0  0  0  0  0  0
   27.2290    6.8820   -9.4950 N   0  0  0  0  0  0  0  0  0  0  0  0
   27.8550    7.8010  -10.3080 C   0  0  0  0  0  0  0  0  0  0  0  0
   27.3790    9.0040   -9.7450 C   0  0  0  0  0  0  0  0  0  0  0  0
   25.5600   10.9820   -5.4090 C   0  0  1  0  0  0  0  0  0  0  0  0
   28.7110    7.7820  -11.3830 N   0  0  0  0  0  0  0  0  0  0  0  0
   29.1360    8.9420  -11.9390 C   0  0  0  0  0  0  0  0  0  0  0  0
   30.5010    9.3050  -12.0420 N   0  0  0  0  0  0  0  0  0  0  0  0
   30.5680   10.5540  -12.6740 C   0  0  0  0  0  0  0  0  0  0  0  0
   29.1880   10.8040  -12.8860 C   0  0  0  0  0  0  0  0  0  0  0  0
   28.3390    9.8430  -12.4580 N   0  0  0  0  0  0  0  0  0  0  0  0
   26.8710    9.8570  -12.5960 C   0  0  1  0  0  0  0  0  0  0  0  0
   24.1590    7.4680   -5.6290 C   0  0  0  0  0  0  0  0  0  0  0  0
   23.6430    6.3530   -5.6710 O   0  0  0  0  0  0  0  0  0  0  0  0
   23.8690    8.2700   -4.4650 N   0  0  0  0  0  0  0  0  0  0  0  0
   23.0250    7.7550   -3.3990 C   0  0  1  0  0  0  0  0  0  0  0  0
   25.5778    6.0594   -7.4039 H   0  0  0  0  0  0  0  0  0  0  0  0
   26.0824   10.8912   -8.1233 H   0  0  0  0  0  0  0  0  0  0  0  0
   27.6672    9.9832  -10.1551 H   0  0  0  0  0  0  0  0  0  0  0  0
   25.2651   10.7804   -4.3686 H   0  0  0  0  0  0  0  0  0  0  0  0
   26.5701   10.5846   -5.5874 H   0  0  0  0  0  0  0  0  0  0  0  0
   25.5563   12.0674   -5.5874 H   0  0  0  0  0  0  0  0  0  0  0  0
   29.0309    6.8817  -11.7677 H   0  0  0  0  0  0  0  0  0  0  0  0
   31.4437   11.1674  -12.9327 H   0  0  0  0  0  0  0  0  0  0  0  0
   28.8300   11.7248  -13.3697 H   0  0  0  0  0  0  0  0  0  0  0  0
   26.4089    9.8614  -11.5978 H   0  0  0  0  0  0  0  0  0  0  0  0
   26.5631   10.7581  -13.1466 H   0  0  0  0  0  0  0  0  0  0  0  0
   26.5459    8.9619  -13.1466 H   0  0  0  0  0  0  0  0  0  0  0  0
   24.2644    9.2180   -4.3885 H   0  0  0  0  0  0  0  0  0  0  0  0
   23.4612    8.0212   -2.4249 H   0  0  0  0  0  0  0  0  0  0  0  0
   22.0198    8.1938   -3.4828 H   0  0  0  0  0  0  0  0  0  0  0  0
   22.9554    6.6604   -3.4828 H   0  0  0  0  0  0  0  0  0  0  0  0
  1  7  1  0
  1  2  2  0
  1  5  1  0
  2  3  1  0
  2 19  1  0
  3  4  1  0
  4  8  2  0
  4  6  1  0
  6 10  1  0
  6  7  2  0
  8  9  1  0
  9 12  1  0
  9 10  2  0
 12 13  1  0
 13 17  1  0
 13 14  2  0
 14 15  1  0
 15 16  2  0
 16 17  1  0
 17 18  1  0
 19 20  2  0
 19 21  1  0
 21 22  1  0
  5 11  1  0
  3 23  1  0
  7 24  1  0
 10 25  1  0
 11 26  1  1
 11 27  1  0
 11 28  1  0
 12 29  1  0
 15 30  1  0
 16 31  1  0
 18 32  1  1
 18 33  1  0
 18 34  1  0
 21 35  1  0
 22 36  1  1
 22 37  1  0
 22 38  1  0
M  END
>  <Pose ID>  (100)
68

>  <Score>  (100)
-6.653038024902344

>  <smiles>  (100)
CNC(=O)c1[nH]c2nc(Nc3nccn3C)cc-2cc1OC

$$$$

     RDKit          3D

 42 45  0  0  0  0  0  0  0  0999 V2000
   25.2040    9.2820   -7.0260 C   0  0  0  0  0  0  0  0  0  0  0  0
   25.1070    7.9040   -6.8550 C   0  0  0  0  0  0  0  0  0  0  0  0
   25.8040    7.0490   -7.6990 N   0  0  0  0  0  0  0  0  0  0  0  0
   26.6010    7.5690   -8.7140 C   0  0  0  0  0  0  0  0  0  0  0  0
   24.6520   10.2610   -6.3680 O   0  0  0  0  0  0  0  0  0  0  0  0
   26.6970    8.9430   -8.8850 C   0  0  0  0  0  0  0  0  0  0  0  0
   26.0010    9.8000   -8.0440 C   0  0  0  0  0  0  0  0  0  0  0  0
   27.3580    6.9520   -9.6390 N   0  0  0  0  0  0  0  0  0  0  0  0
   27.9560    7.9070  -10.4300 C   0  0  0  0  0  0  0  0  0  0  0  0
   27.4410    9.0820   -9.8390 C   0  0  0  0  0  0  0  0  0  0  0  0
   25.5490   10.9010   -5.4670 C   0  0  1  0  0  0  0  0  0  0  0  0
   28.8170    7.9410  -11.5010 N   0  0  0  0  0  0  0  0  0  0  0  0
   29.2040    9.1270  -12.0290 C   0  0  0  0  0  0  0  0  0  0  0  0
   30.5570    9.5350  -12.1200 N   0  0  0  0  0  0  0  0  0  0  0  0
   30.5850   10.8000  -12.7240 C   0  0  0  0  0  0  0  0  0  0  0  0
   29.2000   11.0100  -12.9330 C   0  0  0  0  0  0  0  0  0  0  0  0
   28.3800   10.0130  -12.5300 N   0  0  0  0  0  0  0  0  0  0  0  0
   26.9110    9.9820  -12.6730 C   0  0  1  0  0  0  0  0  0  0  0  0
   24.2770    7.6420   -5.8020 N   0  0  0  0  0  0  0  0  0  0  0  0
   24.3730    6.5530   -4.9790 C   0  0  0  0  0  0  0  0  0  0  0  0
   23.4050    6.7080   -4.0820 C   0  0  0  0  0  0  0  0  0  0  0  0
   23.2470    8.4090   -5.3540 C   0  0  0  0  0  0  0  0  0  0  0  0
   22.6420    7.8880   -4.3340 N   0  0  0  0  0  0  0  0  0  0  0  0
   23.1450    5.7560   -2.9400 C   0  0  1  0  0  0  0  0  0  0  0  0
   22.6720    4.5640   -3.5410 O   0  0  0  0  0  0  0  0  0  0  0  0
   25.7308    6.0293   -7.5734 H   0  0  0  0  0  0  0  0  0  0  0  0
   26.0788   10.8886   -8.1815 H   0  0  0  0  0  0  0  0  0  0  0  0
   27.7007   10.0793  -10.2238 H   0  0  0  0  0  0  0  0  0  0  0  0
   25.2457   10.6846   -4.4320 H   0  0  0  0  0  0  0  0  0  0  0  0
   26.5689   10.5254   -5.6363 H   0  0  0  0  0  0  0  0  0  0  0  0
   25.5256   11.9876   -5.6363 H   0  0  0  0  0  0  0  0  0  0  0  0
   29.1694    7.0610  -11.9038 H   0  0  0  0  0  0  0  0  0  0  0  0
   31.4410   11.4468  -12.9670 H   0  0  0  0  0  0  0  0  0  0  0  0
   28.8140   11.9301  -13.3960 H   0  0  0  0  0  0  0  0  0  0  0  0
   26.4457    9.9722  -11.6763 H   0  0  0  0  0  0  0  0  0  0  0  0
   26.5774   10.8733  -13.2246 H   0  0  0  0  0  0  0  0  0  0  0  0
   26.6153    9.0774  -13.2246 H   0  0  0  0  0  0  0  0  0  0  0  0
   25.0961    5.7268   -5.0457 H   0  0  0  0  0  0  0  0  0  0  0  0
   22.9588    9.3682   -5.8088 H   0  0  0  0  0  0  0  0  0  0  0  0
   24.0729    5.5630   -2.3816 H   0  0  0  0  0  0  0  0  0  0  0  0
   22.4191    6.1673   -2.2231 H   0  0  0  0  0  0  0  0  0  0  0  0
   22.4157    3.9181   -2.8359 H   0  0  0  0  0  0  0  0  0  0  0  0
  1  7  1  0
  1  2  2  0
  1  5  1  0
  2  3  1  0
  2 19  1  0
  3  4  1  0
  4  8  2  0
  4  6  1  0
  6 10  1  0
  6  7  2  0
  8  9  1  0
  9 12  1  0
  9 10  2  0
 12 13  1  0
 13 17  1  0
 13 14  2  0
 14 15  1  0
 15 16  2  0
 16 17  1  0
 17 18  1  0
 19 22  1  0
 19 20  1  0
 20 21  2  0
 21 23  1  0
 21 24  1  0
 22 23  2  0
 24 25  1  0
  5 11  1  0
  3 26  1  0
  7 27  1  0
 10 28  1  0
 11 29  1  1
 11 30  1  0
 11 31  1  0
 12 32  1  0
 15 33  1  0
 16 34  1  0
 18 35  1  1
 18 36  1  0
 18 37  1  0
 20 38  1  0
 22 39  1  0
 24 40  1  1
 24 41  1  0
 25 42  1  0
M  END
>  <Pose ID>  (101)
124

>  <Score>  (101)
-6.64400053024292

>  <smiles>  (101)
COc1cc2cc(Nc3nccn3C)nc-2[nH]c1-n1cnc(CO)c1

$$$$

     RDKit          3D

 43 46  0  0  0  0  0  0  0  0999 V2000
   25.1910    9.1900   -6.9920 C   0  0  0  0  0  0  0  0  0  0  0  0
   25.1540    7.8080   -6.8260 C   0  0  0  0  0  0  0  0  0  0  0  0
   25.8740    6.9860   -7.6800 N   0  0  0  0  0  0  0  0  0  0  0  0
   26.6350    7.5430   -8.7050 C   0  0  0  0  0  0  0  0  0  0  0  0
   24.6080   10.1440   -6.3220 O   0  0  0  0  0  0  0  0  0  0  0  0
   26.6720    8.9200   -8.8710 C   0  0  0  0  0  0  0  0  0  0  0  0
   25.9520    9.7450   -8.0180 C   0  0  0  0  0  0  0  0  0  0  0  0
   27.4050    6.9610   -9.6410 N   0  0  0  0  0  0  0  0  0  0  0  0
   27.9520    7.9420  -10.4360 C   0  0  0  0  0  0  0  0  0  0  0  0
   27.3950    9.0930   -9.8350 C   0  0  0  0  0  0  0  0  0  0  0  0
   25.4890   10.8160   -5.4310 C   0  0  1  0  0  0  0  0  0  0  0  0
   28.7930    8.0160  -11.5190 N   0  0  0  0  0  0  0  0  0  0  0  0
   29.1260    9.2180  -12.0490 C   0  0  0  0  0  0  0  0  0  0  0  0
   30.4580    9.6830  -12.1580 N   0  0  0  0  0  0  0  0  0  0  0  0
   30.4240   10.9500  -12.7540 C   0  0  0  0  0  0  0  0  0  0  0  0
   29.0280   11.1040  -12.9460 C   0  0  0  0  0  0  0  0  0  0  0  0
   28.2570   10.0700  -12.5360 N   0  0  0  0  0  0  0  0  0  0  0  0
   26.7900    9.9810  -12.6570 C   0  0  1  0  0  0  0  0  0  0  0  0
   24.3760    7.2650   -5.7900 C   0  0  0  0  0  0  0  0  0  0  0  0
   23.2090    7.8310   -5.2930 N   0  0  0  0  0  0  0  0  0  0  0  0
   22.5300    7.2190   -4.2450 C   0  0  0  0  0  0  0  0  0  0  0  0
   24.8650    6.0860   -5.2390 C   0  0  0  0  0  0  0  0  0  0  0  0
   24.1880    5.4740   -4.1920 N   0  0  0  0  0  0  0  0  0  0  0  0
   23.0490    6.0180   -3.6940 C   0  0  0  0  0  0  0  0  0  0  0  0
   22.4570    5.4620   -2.7520 O   0  0  0  0  0  0  0  0  0  0  0  0
   21.2600    7.8240   -3.7000 C   0  0  1  0  0  0  0  0  0  0  0  0
   25.8460    5.9638   -7.5563 H   0  0  0  0  0  0  0  0  0  0  0  0
   25.9824   10.8364   -8.1522 H   0  0  0  0  0  0  0  0  0  0  0  0
   27.6054   10.1012  -10.2212 H   0  0  0  0  0  0  0  0  0  0  0  0
   25.1995   10.5951   -4.3930 H   0  0  0  0  0  0  0  0  0  0  0  0
   26.5193   10.4723   -5.6053 H   0  0  0  0  0  0  0  0  0  0  0  0
   25.4299   11.9005   -5.6053 H   0  0  0  0  0  0  0  0  0  0  0  0
   29.1733    7.1521  -11.9313 H   0  0  0  0  0  0  0  0  0  0  0  0
   31.2490   11.6336  -13.0031 H   0  0  0  0  0  0  0  0  0  0  0  0
   28.5977   12.0086  -13.4004 H   0  0  0  0  0  0  0  0  0  0  0  0
   26.3403    9.9537  -11.6535 H   0  0  0  0  0  0  0  0  0  0  0  0
   26.4133   10.8579  -13.2039 H   0  0  0  0  0  0  0  0  0  0  0  0
   26.5221    9.0650  -13.2039 H   0  0  0  0  0  0  0  0  0  0  0  0
   25.7890    5.6374   -5.6326 H   0  0  0  0  0  0  0  0  0  0  0  0
   24.5539    4.5992   -3.7899 H   0  0  0  0  0  0  0  0  0  0  0  0
   21.2896    7.8099   -2.6005 H   0  0  0  0  0  0  0  0  0  0  0  0
   21.1685    8.8624   -4.0511 H   0  0  0  0  0  0  0  0  0  0  0  0
   20.3959    7.2408   -4.0511 H   0  0  0  0  0  0  0  0  0  0  0  0
  1  7  1  0
  1  2  2  0
  1  5  1  0
  2  3  1  0
  2 19  1  0
  3  4  1  0
  4  8  2  0
  4  6  1  0
  6 10  1  0
  6  7  2  0
  8  9  1  0
  9 12  1  0
  9 10  2  0
 19 20  1  0
 19 22  2  0
 20 21  2  0
 21 26  1  0
 21 24  1  0
 22 23  1  0
 23 24  1  0
 24 25  2  0
 12 13  1  0
 13 17  1  0
 13 14  2  0
 14 15  1  0
 15 16  2  0
 16 17  1  0
 17 18  1  0
  5 11  1  0
  3 27  1  0
  7 28  1  0
 10 29  1  0
 11 30  1  1
 11 31  1  0
 11 32  1  0
 12 33  1  0
 15 34  1  0
 16 35  1  0
 18 36  1  1
 18 37  1  0
 18 38  1  0
 22 39  1  0
 23 40  1  0
 26 41  1  1
 26 42  1  0
 26 43  1  0
M  END
>  <Pose ID>  (102)
7

>  <Score>  (102)
-6.642461776733398

>  <smiles>  (102)
COc1cc2cc(Nc3nccn3C)nc-2[nH]c1-c1c[nH]c(=O)c(C)n1

$$$$

     RDKit          3D

 43 46  0  0  0  0  0  0  0  0999 V2000
   25.1780    9.4580   -6.8810 C   0  0  0  0  0  0  0  0  0  0  0  0
   25.0230    8.0960   -6.6380 C   0  0  0  0  0  0  0  0  0  0  0  0
   25.6730    7.1670   -7.4380 N   0  0  0  0  0  0  0  0  0  0  0  0
   26.4840    7.5980   -8.4840 C   0  0  0  0  0  0  0  0  0  0  0  0
   24.6740   10.4940   -6.2700 O   0  0  0  0  0  0  0  0  0  0  0  0
   26.6420    8.9550   -8.7260 C   0  0  0  0  0  0  0  0  0  0  0  0
   25.9900    9.8860   -7.9270 C   0  0  0  0  0  0  0  0  0  0  0  0
   27.2090    6.9000   -9.3780 N   0  0  0  0  0  0  0  0  0  0  0  0
   27.8420    7.7880  -10.2200 C   0  0  0  0  0  0  0  0  0  0  0  0
   27.3830    9.0130   -9.6900 C   0  0  0  0  0  0  0  0  0  0  0  0
   25.6050   11.1380   -5.4070 C   0  0  1  0  0  0  0  0  0  0  0  0
   28.6940    7.7280  -11.2960 N   0  0  0  0  0  0  0  0  0  0  0  0
   29.1310    8.8650  -11.8860 C   0  0  0  0  0  0  0  0  0  0  0  0
   30.4990    9.2070  -12.0060 N   0  0  0  0  0  0  0  0  0  0  0  0
   30.5810   10.4370  -12.6750 C   0  0  0  0  0  0  0  0  0  0  0  0
   29.2050   10.6970  -12.8870 C   0  0  0  0  0  0  0  0  0  0  0  0
   28.3440    9.7590  -12.4310 N   0  0  0  0  0  0  0  0  0  0  0  0
   26.8750    9.7890  -12.5630 C   0  0  1  0  0  0  0  0  0  0  0  0
   24.2440    7.4430   -5.6630 C   0  0  0  0  0  0  0  0  0  0  0  0
   23.1050    8.0610   -5.1630 N   0  0  0  0  0  0  0  0  0  0  0  0
   22.3650    7.4450   -4.1570 C   0  0  0  0  0  0  0  0  0  0  0  0
   24.6460    6.2110   -5.1590 C   0  0  0  0  0  0  0  0  0  0  0  0
   22.7670    6.2150   -3.6540 C   0  0  0  0  0  0  0  0  0  0  0  0
   23.8920    5.5800   -4.1450 N   0  0  0  0  0  0  0  0  0  0  0  0
   21.9640    5.5620   -2.5580 C   0  0  1  0  0  0  0  0  0  0  0  0
   22.7420    4.6100   -1.7930 O   0  0  0  0  0  0  0  0  0  0  0  0
   25.5555    6.1597   -7.2580 H   0  0  0  0  0  0  0  0  0  0  0  0
   26.1156   10.9614   -8.1212 H   0  0  0  0  0  0  0  0  0  0  0  0
   27.6815    9.9767  -10.1284 H   0  0  0  0  0  0  0  0  0  0  0  0
   25.3277   10.9462   -4.3599 H   0  0  0  0  0  0  0  0  0  0  0  0
   26.6143   10.7441   -5.5971 H   0  0  0  0  0  0  0  0  0  0  0  0
   25.5924   12.2214   -5.5971 H   0  0  0  0  0  0  0  0  0  0  0  0
   29.0018    6.8132  -11.6555 H   0  0  0  0  0  0  0  0  0  0  0  0
   31.4634   11.0310  -12.9554 H   0  0  0  0  0  0  0  0  0  0  0  0
   28.8567   11.6093  -13.3934 H   0  0  0  0  0  0  0  0  0  0  0  0
   26.4171    9.7984  -11.5629 H   0  0  0  0  0  0  0  0  0  0  0  0
   26.5746   10.6935  -13.1123 H   0  0  0  0  0  0  0  0  0  0  0  0
   26.5379    8.8976  -13.1123 H   0  0  0  0  0  0  0  0  0  0  0  0
   21.4621    7.9328   -3.7609 H   0  0  0  0  0  0  0  0  0  0  0  0
   25.5528    5.7270   -5.5507 H   0  0  0  0  0  0  0  0  0  0  0  0
   21.5946    6.3435   -1.8777 H   0  0  0  0  0  0  0  0  0  0  0  0
   21.1361    5.0137   -3.0313 H   0  0  0  0  0  0  0  0  0  0  0  0
   22.6073    4.7749   -0.8262 H   0  0  0  0  0  0  0  0  0  0  0  0
  1  7  1  0
  1  2  2  0
  1  5  1  0
  2  3  1  0
  2 19  1  0
  3  4  1  0
  4  8  2  0
  4  6  1  0
  6 10  1  0
  6  7  2  0
  8  9  1  0
  9 12  1  0
  9 10  2  0
 12 13  1  0
 13 17  1  0
 13 14  2  0
 14 15  1  0
 15 16  2  0
 16 17  1  0
 17 18  1  0
 19 20  2  0
 19 22  1  0
 20 21  1  0
 21 23  2  0
 22 24  2  0
 23 24  1  0
 23 25  1  0
 25 26  1  0
  5 11  1  0
  3 27  1  0
  7 28  1  0
 10 29  1  0
 11 30  1  1
 11 31  1  0
 11 32  1  0
 12 33  1  0
 15 34  1  0
 16 35  1  0
 18 36  1  1
 18 37  1  0
 18 38  1  0
 21 39  1  0
 22 40  1  0
 25 41  1  1
 25 42  1  0
 26 43  1  0
M  END
>  <Pose ID>  (103)
47

>  <Score>  (103)
-6.64195442199707

>  <smiles>  (103)
COc1cc2cc(Nc3nccn3C)nc-2[nH]c1-c1cnc(CO)cn1

$$$$

     RDKit          3D

 42 45  0  0  0  0  0  0  0  0999 V2000
   25.3660    9.3060   -6.8200 C   0  0  0  0  0  0  0  0  0  0  0  0
   25.2150    7.9330   -6.6570 C   0  0  0  0  0  0  0  0  0  0  0  0
   25.8300    7.0530   -7.5360 N   0  0  0  0  0  0  0  0  0  0  0  0
   26.6030    7.5490   -8.5840 C   0  0  0  0  0  0  0  0  0  0  0  0
   24.8930   10.3040   -6.1250 O   0  0  0  0  0  0  0  0  0  0  0  0
   26.7570    8.9170   -8.7480 C   0  0  0  0  0  0  0  0  0  0  0  0
   26.1410    9.7980   -7.8680 C   0  0  0  0  0  0  0  0  0  0  0  0
   27.2880    6.9050   -9.5490 N   0  0  0  0  0  0  0  0  0  0  0  0
   27.8930    7.8400  -10.3560 C   0  0  0  0  0  0  0  0  0  0  0  0
   27.4610    9.0320   -9.7350 C   0  0  0  0  0  0  0  0  0  0  0  0
   25.8610   10.8890   -5.2640 C   0  0  1  0  0  0  0  0  0  0  0  0
   28.7020    7.8450  -11.4660 N   0  0  0  0  0  0  0  0  0  0  0  0
   29.1230    9.0170  -12.0020 C   0  0  0  0  0  0  0  0  0  0  0  0
   30.4860    9.3630  -12.1530 N   0  0  0  0  0  0  0  0  0  0  0  0
   30.5480   10.6310  -12.7440 C   0  0  0  0  0  0  0  0  0  0  0  0
   29.1650   10.9100  -12.8900 C   0  0  0  0  0  0  0  0  0  0  0  0
   28.3200    9.9470  -12.4580 N   0  0  0  0  0  0  0  0  0  0  0  0
   26.8460    9.9870  -12.5320 C   0  0  1  0  0  0  0  0  0  0  0  0
   24.4560    7.4710   -5.5230 C   0  0  0  0  0  0  0  0  0  0  0  0
   23.4840    6.4960   -5.7180 N   0  0  0  0  0  0  0  0  0  0  0  0
   22.7360    6.0350   -4.6400 C   0  0  0  0  0  0  0  0  0  0  0  0
   22.9610    6.5490   -3.3690 C   0  0  0  0  0  0  0  0  0  0  0  0
   23.9330    7.5230   -3.1740 C   0  0  0  0  0  0  0  0  0  0  0  0
   24.6800    7.9840   -4.2510 N   0  0  0  0  0  0  0  0  0  0  0  0
   22.1480    6.0490   -2.2000 C   0  0  1  0  0  0  0  0  0  0  0  0
   25.7156    6.0366   -7.4143 H   0  0  0  0  0  0  0  0  0  0  0  0
   26.2651   10.8832   -7.9986 H   0  0  0  0  0  0  0  0  0  0  0  0
   27.7473   10.0199  -10.1250 H   0  0  0  0  0  0  0  0  0  0  0  0
   25.5731   10.7150   -4.2167 H   0  0  0  0  0  0  0  0  0  0  0  0
   26.8441   10.4337   -5.4545 H   0  0  0  0  0  0  0  0  0  0  0  0
   25.9150   11.9710   -5.4545 H   0  0  0  0  0  0  0  0  0  0  0  0
   28.9904    6.9534  -11.8935 H   0  0  0  0  0  0  0  0  0  0  0  0
   31.4227   11.2392  -13.0178 H   0  0  0  0  0  0  0  0  0  0  0  0
   28.8023   11.8517  -13.3277 H   0  0  0  0  0  0  0  0  0  0  0  0
   26.4280    9.9983  -11.5146 H   0  0  0  0  0  0  0  0  0  0  0  0
   26.5303   10.8940  -13.0683 H   0  0  0  0  0  0  0  0  0  0  0  0
   26.4815    9.0984  -13.0683 H   0  0  0  0  0  0  0  0  0  0  0  0
   21.9667    5.2639   -4.7936 H   0  0  0  0  0  0  0  0  0  0  0  0
   24.1109    7.9289   -2.1672 H   0  0  0  0  0  0  0  0  0  0  0  0
   22.6348    6.3484   -1.2601 H   0  0  0  0  0  0  0  0  0  0  0  0
   21.1378    6.4821   -2.2439 H   0  0  0  0  0  0  0  0  0  0  0  0
   22.0788    4.9521   -2.2439 H   0  0  0  0  0  0  0  0  0  0  0  0
  1  7  1  0
  1  2  2  0
  1  5  1  0
  2  3  1  0
  2 19  1  0
  3  4  1  0
  4  8  2  0
  4  6  1  0
  6 10  1  0
  6  7  2  0
  8  9  1  0
  9 12  1  0
  9 10  2  0
 12 13  1  0
 13 17  1  0
 13 14  2  0
 14 15  1  0
 15 16  2  0
 16 17  1  0
 17 18  1  0
 19 20  2  0
 19 24  1  0
 20 21  1  0
 21 22  2  0
 22 23  1  0
 22 25  1  0
 23 24  2  0
  5 11  1  0
  3 26  1  0
  7 27  1  0
 10 28  1  0
 11 29  1  1
 11 30  1  0
 11 31  1  0
 12 32  1  0
 15 33  1  0
 16 34  1  0
 18 35  1  1
 18 36  1  0
 18 37  1  0
 21 38  1  0
 23 39  1  0
 25 40  1  1
 25 41  1  0
 25 42  1  0
M  END
>  <Pose ID>  (104)
12

>  <Score>  (104)
-6.6410813331604

>  <smiles>  (104)
COc1cc2cc(Nc3nccn3C)nc-2[nH]c1-c1ncc(C)cn1

$$$$

     RDKit          3D

 40 43  0  0  0  0  0  0  0  0999 V2000
   25.3630    9.3050   -6.8200 C   0  0  0  0  0  0  0  0  0  0  0  0
   25.2110    7.9320   -6.6560 C   0  0  0  0  0  0  0  0  0  0  0  0
   25.8260    7.0520   -7.5350 N   0  0  0  0  0  0  0  0  0  0  0  0
   26.6000    7.5460   -8.5820 C   0  0  0  0  0  0  0  0  0  0  0  0
   24.8890   10.3030   -6.1260 O   0  0  0  0  0  0  0  0  0  0  0  0
   26.7530    8.9140   -8.7470 C   0  0  0  0  0  0  0  0  0  0  0  0
   26.1380    9.7960   -7.8680 C   0  0  0  0  0  0  0  0  0  0  0  0
   27.2850    6.9010   -9.5470 N   0  0  0  0  0  0  0  0  0  0  0  0
   27.8900    7.8360  -10.3540 C   0  0  0  0  0  0  0  0  0  0  0  0
   27.4580    9.0280   -9.7340 C   0  0  0  0  0  0  0  0  0  0  0  0
   25.8570   10.8890   -5.2650 C   0  0  1  0  0  0  0  0  0  0  0  0
   28.6990    7.8400  -11.4640 N   0  0  0  0  0  0  0  0  0  0  0  0
   29.1210    9.0110  -12.0010 C   0  0  0  0  0  0  0  0  0  0  0  0
   30.4840    9.3570  -12.1520 N   0  0  0  0  0  0  0  0  0  0  0  0
   30.5470   10.6250  -12.7440 C   0  0  0  0  0  0  0  0  0  0  0  0
   29.1630   10.9040  -12.8900 C   0  0  0  0  0  0  0  0  0  0  0  0
   28.3180    9.9420  -12.4570 N   0  0  0  0  0  0  0  0  0  0  0  0
   26.8440    9.9820  -12.5320 C   0  0  1  0  0  0  0  0  0  0  0  0
   24.4520    7.4710   -5.5220 C   0  0  0  0  0  0  0  0  0  0  0  0
   23.4790    6.4960   -5.7170 N   0  0  0  0  0  0  0  0  0  0  0  0
   22.7310    6.0370   -4.6390 C   0  0  0  0  0  0  0  0  0  0  0  0
   22.9550    6.5510   -3.3670 C   0  0  0  0  0  0  0  0  0  0  0  0
   23.9280    7.5250   -3.1730 C   0  0  0  0  0  0  0  0  0  0  0  0
   24.6760    7.9850   -4.2510 N   0  0  0  0  0  0  0  0  0  0  0  0
   22.2210    6.1000   -2.3110 O   0  0  0  0  0  0  0  0  0  0  0  0
   25.7103    6.0358   -7.4134 H   0  0  0  0  0  0  0  0  0  0  0  0
   26.2628   10.8810   -7.9993 H   0  0  0  0  0  0  0  0  0  0  0  0
   27.7449   10.0156  -10.1244 H   0  0  0  0  0  0  0  0  0  0  0  0
   25.5694   10.7149   -4.2176 H   0  0  0  0  0  0  0  0  0  0  0  0
   26.8404   10.4344   -5.4556 H   0  0  0  0  0  0  0  0  0  0  0  0
   25.9101   11.9711   -5.4556 H   0  0  0  0  0  0  0  0  0  0  0  0
   28.9868    6.9479  -11.8909 H   0  0  0  0  0  0  0  0  0  0  0  0
   31.4219   11.2328  -13.0182 H   0  0  0  0  0  0  0  0  0  0  0  0
   28.8004   11.8453  -13.3286 H   0  0  0  0  0  0  0  0  0  0  0  0
   26.4253    9.9934  -11.5149 H   0  0  0  0  0  0  0  0  0  0  0  0
   26.5286   10.8890  -13.0685 H   0  0  0  0  0  0  0  0  0  0  0  0
   26.4799    9.0934  -13.0685 H   0  0  0  0  0  0  0  0  0  0  0  0
   21.9612    5.2664   -4.7926 H   0  0  0  0  0  0  0  0  0  0  0  0
   24.1061    7.9317   -2.1666 H   0  0  0  0  0  0  0  0  0  0  0  0
   22.3804    6.4660   -1.4051 H   0  0  0  0  0  0  0  0  0  0  0  0
  1  7  1  0
  1  2  2  0
  1  5  1  0
  2  3  1  0
  2 19  1  0
  3  4  1  0
  4  8  2  0
  4  6  1  0
  6 10  1  0
  6  7  2  0
  8  9  1  0
  9 12  1  0
  9 10  2  0
 12 13  1  0
 13 17  1  0
 13 14  2  0
 14 15  1  0
 15 16  2  0
 16 17  1  0
 17 18  1  0
 19 20  2  0
 19 24  1  0
 20 21  1  0
 21 22  2  0
 22 23  1  0
 22 25  1  0
 23 24  2  0
  5 11  1  0
  3 26  1  0
  7 27  1  0
 10 28  1  0
 11 29  1  1
 11 30  1  0
 11 31  1  0
 12 32  1  0
 15 33  1  0
 16 34  1  0
 18 35  1  1
 18 36  1  0
 18 37  1  0
 21 38  1  0
 23 39  1  0
 25 40  1  0
M  END
>  <Pose ID>  (105)
13

>  <Score>  (105)
-6.6144537925720215

>  <smiles>  (105)
COc1cc2cc(Nc3nccn3C)nc-2[nH]c1-c1ncc(O)cn1

$$$$

     RDKit          3D

 35 37  0  0  0  0  0  0  0  0999 V2000
   25.1580    9.3400   -6.9330 C   0  0  0  0  0  0  0  0  0  0  0  0
   25.0200    7.9700   -6.7290 C   0  0  0  0  0  0  0  0  0  0  0  0
   25.6840    7.0730   -7.5530 N   0  0  0  0  0  0  0  0  0  0  0  0
   26.4950    7.5460   -8.5830 C   0  0  0  0  0  0  0  0  0  0  0  0
   24.6400   10.3530   -6.2930 O   0  0  0  0  0  0  0  0  0  0  0  0
   26.6350    8.9110   -8.7850 C   0  0  0  0  0  0  0  0  0  0  0  0
   25.9690    9.8090   -7.9620 C   0  0  0  0  0  0  0  0  0  0  0  0
   27.2290    6.8820   -9.4950 N   0  0  0  0  0  0  0  0  0  0  0  0
   27.8550    7.8010  -10.3080 C   0  0  0  0  0  0  0  0  0  0  0  0
   27.3790    9.0040   -9.7450 C   0  0  0  0  0  0  0  0  0  0  0  0
   25.5600   10.9820   -5.4090 C   0  0  1  0  0  0  0  0  0  0  0  0
   28.7110    7.7820  -11.3830 N   0  0  0  0  0  0  0  0  0  0  0  0
   29.1360    8.9420  -11.9390 C   0  0  0  0  0  0  0  0  0  0  0  0
   30.5010    9.3050  -12.0420 N   0  0  0  0  0  0  0  0  0  0  0  0
   30.5680   10.5540  -12.6740 C   0  0  0  0  0  0  0  0  0  0  0  0
   29.1880   10.8040  -12.8860 C   0  0  0  0  0  0  0  0  0  0  0  0
   28.3390    9.8430  -12.4580 N   0  0  0  0  0  0  0  0  0  0  0  0
   26.8710    9.8570  -12.5960 C   0  0  1  0  0  0  0  0  0  0  0  0
   24.1590    7.4680   -5.6290 C   0  0  0  0  0  0  0  0  0  0  0  0
   23.6430    6.3530   -5.6710 O   0  0  0  0  0  0  0  0  0  0  0  0
   23.8690    8.2700   -4.4650 N   0  0  0  0  0  0  0  0  0  0  0  0
   25.5778    6.0594   -7.4039 H   0  0  0  0  0  0  0  0  0  0  0  0
   26.0824   10.8912   -8.1233 H   0  0  0  0  0  0  0  0  0  0  0  0
   27.6672    9.9832  -10.1551 H   0  0  0  0  0  0  0  0  0  0  0  0
   25.2651   10.7804   -4.3686 H   0  0  0  0  0  0  0  0  0  0  0  0
   26.5701   10.5846   -5.5874 H   0  0  0  0  0  0  0  0  0  0  0  0
   25.5563   12.0674   -5.5874 H   0  0  0  0  0  0  0  0  0  0  0  0
   29.0309    6.8817  -11.7677 H   0  0  0  0  0  0  0  0  0  0  0  0
   31.4437   11.1674  -12.9327 H   0  0  0  0  0  0  0  0  0  0  0  0
   28.8300   11.7248  -13.3697 H   0  0  0  0  0  0  0  0  0  0  0  0
   26.4089    9.8614  -11.5978 H   0  0  0  0  0  0  0  0  0  0  0  0
   26.5631   10.7581  -13.1466 H   0  0  0  0  0  0  0  0  0  0  0  0
   26.5459    8.9619  -13.1466 H   0  0  0  0  0  0  0  0  0  0  0  0
   23.2679    7.8945   -3.7176 H   0  0  0  0  0  0  0  0  0  0  0  0
   24.2631    9.2180   -4.3816 H   0  0  0  0  0  0  0  0  0  0  0  0
  1  7  1  0
  1  2  2  0
  1  5  1  0
  2  3  1  0
  2 19  1  0
  3  4  1  0
  4  8  2  0
  4  6  1  0
  6 10  1  0
  6  7  2  0
  8  9  1  0
  9 12  1  0
  9 10  2  0
 12 13  1  0
 13 17  1  0
 13 14  2  0
 14 15  1  0
 15 16  2  0
 16 17  1  0
 17 18  1  0
 19 20  2  0
 19 21  1  0
  5 11  1  0
  3 22  1  0
  7 23  1  0
 10 24  1  0
 11 25  1  1
 11 26  1  0
 11 27  1  0
 12 28  1  0
 15 29  1  0
 16 30  1  0
 18 31  1  1
 18 32  1  0
 18 33  1  0
 21 34  1  0
 21 35  1  0
M  END
>  <Pose ID>  (106)
67

>  <Score>  (106)
-6.608524799346924

>  <smiles>  (106)
COc1cc2cc(Nc3nccn3C)nc-2[nH]c1C(N)=O

$$$$

     RDKit          3D

 39 42  0  0  0  0  0  0  0  0999 V2000
   25.3170    9.3140   -6.8280 C   0  0  0  0  0  0  0  0  0  0  0  0
   25.1930    7.9410   -6.6450 C   0  0  0  0  0  0  0  0  0  0  0  0
   25.8250    7.0610   -7.5130 N   0  0  0  0  0  0  0  0  0  0  0  0
   26.5870    7.5570   -8.5680 C   0  0  0  0  0  0  0  0  0  0  0  0
   24.8240   10.3120   -6.1470 O   0  0  0  0  0  0  0  0  0  0  0  0
   26.7130    8.9250   -8.7520 C   0  0  0  0  0  0  0  0  0  0  0  0
   26.0810    9.8060   -7.8840 C   0  0  0  0  0  0  0  0  0  0  0  0
   27.2840    6.9130   -9.5250 N   0  0  0  0  0  0  0  0  0  0  0  0
   27.8690    7.8490  -10.3460 C   0  0  0  0  0  0  0  0  0  0  0  0
   27.4140    9.0400   -9.7410 C   0  0  0  0  0  0  0  0  0  0  0  0
   25.7810   10.9290   -5.2950 C   0  0  1  0  0  0  0  0  0  0  0  0
   28.6770    7.8540  -11.4570 N   0  0  0  0  0  0  0  0  0  0  0  0
   29.0740    9.0260  -12.0100 C   0  0  0  0  0  0  0  0  0  0  0  0
   30.4300    9.3970  -12.1680 N   0  0  0  0  0  0  0  0  0  0  0  0
   30.4660   10.6580  -12.7770 C   0  0  0  0  0  0  0  0  0  0  0  0
   29.0770   10.9070  -12.9250 C   0  0  0  0  0  0  0  0  0  0  0  0
   28.2520    9.9340  -12.4780 N   0  0  0  0  0  0  0  0  0  0  0  0
   26.7770    9.9430  -12.5510 C   0  0  1  0  0  0  0  0  0  0  0  0
   24.4450    7.4800   -5.5040 C   0  0  0  0  0  0  0  0  0  0  0  0
   23.4920    6.4830   -5.6840 N   0  0  0  0  0  0  0  0  0  0  0  0
   22.7550    6.0230   -4.5990 C   0  0  0  0  0  0  0  0  0  0  0  0
   22.9700    6.5590   -3.3350 C   0  0  0  0  0  0  0  0  0  0  0  0
   23.9230    7.5550   -3.1550 C   0  0  0  0  0  0  0  0  0  0  0  0
   24.6600    8.0150   -4.2400 N   0  0  0  0  0  0  0  0  0  0  0  0
   25.7307    6.0444   -7.3772 H   0  0  0  0  0  0  0  0  0  0  0  0
   26.1836   10.8914   -8.0302 H   0  0  0  0  0  0  0  0  0  0  0  0
   27.6806   10.0279  -10.1447 H   0  0  0  0  0  0  0  0  0  0  0  0
   25.5055   10.7514   -4.2450 H   0  0  0  0  0  0  0  0  0  0  0  0
   26.7755   10.5016   -5.4905 H   0  0  0  0  0  0  0  0  0  0  0  0
   25.8022   12.0113   -5.4905 H   0  0  0  0  0  0  0  0  0  0  0  0
   28.9828    6.9623  -11.8720 H   0  0  0  0  0  0  0  0  0  0  0  0
   31.3280   11.2798  -13.0605 H   0  0  0  0  0  0  0  0  0  0  0  0
   28.6950   11.8348  -13.3758 H   0  0  0  0  0  0  0  0  0  0  0  0
   26.3595    9.9455  -11.5333 H   0  0  0  0  0  0  0  0  0  0  0  0
   26.4419   10.8432  -13.0870 H   0  0  0  0  0  0  0  0  0  0  0  0
   26.4309    9.0469  -13.0870 H   0  0  0  0  0  0  0  0  0  0  0  0
   22.0013    5.2344   -4.7409 H   0  0  0  0  0  0  0  0  0  0  0  0
   22.3860    6.1951   -2.4768 H   0  0  0  0  0  0  0  0  0  0  0  0
   24.0937    7.9789   -2.1544 H   0  0  0  0  0  0  0  0  0  0  0  0
  1  7  1  0
  1  2  2  0
  1  5  1  0
  2  3  1  0
  2 19  1  0
  3  4  1  0
  4  8  2  0
  4  6  1  0
  6 10  1  0
  6  7  2  0
  8  9  1  0
  9 12  1  0
  9 10  2  0
 12 13  1  0
 13 17  1  0
 13 14  2  0
 14 15  1  0
 15 16  2  0
 16 17  1  0
 17 18  1  0
 19 20  2  0
 19 24  1  0
 20 21  1  0
 21 22  2  0
 22 23  1  0
 23 24  2  0
  5 11  1  0
  3 25  1  0
  7 26  1  0
 10 27  1  0
 11 28  1  1
 11 29  1  0
 11 30  1  0
 12 31  1  0
 15 32  1  0
 16 33  1  0
 18 34  1  1
 18 35  1  0
 18 36  1  0
 21 37  1  0
 22 38  1  0
 23 39  1  0
M  END
>  <Pose ID>  (107)
11

>  <Score>  (107)
-6.604996204376221

>  <smiles>  (107)
COc1cc2cc(Nc3nccn3C)nc-2[nH]c1-c1ncccn1

$$$$

     RDKit          3D

 45 48  0  0  0  0  0  0  0  0999 V2000
   25.0910    9.2570   -7.1360 C   0  0  0  0  0  0  0  0  0  0  0  0
   25.0240    7.8840   -6.9200 C   0  0  0  0  0  0  0  0  0  0  0  0
   25.7700    7.0190   -7.7060 N   0  0  0  0  0  0  0  0  0  0  0  0
   26.5900    7.5250   -8.7120 C   0  0  0  0  0  0  0  0  0  0  0  0
   24.4900   10.2440   -6.5290 O   0  0  0  0  0  0  0  0  0  0  0  0
   26.6580    8.8960   -8.9250 C   0  0  0  0  0  0  0  0  0  0  0  0
   25.9100    9.7620   -8.1400 C   0  0  0  0  0  0  0  0  0  0  0  0
   27.3960    6.8980   -9.5880 N   0  0  0  0  0  0  0  0  0  0  0  0
   27.9970    7.8420  -10.3890 C   0  0  0  0  0  0  0  0  0  0  0  0
   27.4310    9.0210   -9.8580 C   0  0  0  0  0  0  0  0  0  0  0  0
   25.3390   10.9360   -5.6190 C   0  0  1  0  0  0  0  0  0  0  0  0
   28.8930    7.8620  -11.4300 N   0  0  0  0  0  0  0  0  0  0  0  0
   29.2700    9.0390  -11.9870 C   0  0  0  0  0  0  0  0  0  0  0  0
   30.6130    9.4810  -12.0430 N   0  0  0  0  0  0  0  0  0  0  0  0
   30.6320   10.7250  -12.6880 C   0  0  0  0  0  0  0  0  0  0  0  0
   29.2500   10.8920  -12.9540 C   0  0  0  0  0  0  0  0  0  0  0  0
   28.4410    9.8850  -12.5460 N   0  0  0  0  0  0  0  0  0  0  0  0
   26.9810    9.8140  -12.7390 C   0  0  1  0  0  0  0  0  0  0  0  0
   24.2200    7.3840   -5.9250 N   0  0  0  0  0  0  0  0  0  0  0  0
   23.4220    8.1240   -5.1480 C   0  0  0  0  0  0  0  0  0  0  0  0
   23.7730    8.5580   -3.8760 C   0  0  0  0  0  0  0  0  0  0  0  0
   22.9070    9.3760   -3.1580 N   0  0  0  0  0  0  0  0  0  0  0  0
   21.6910    9.7590   -3.7130 C   0  0  0  0  0  0  0  0  0  0  0  0
   21.3420    9.3230   -4.9860 C   0  0  0  0  0  0  0  0  0  0  0  0
   22.1910    8.5170   -5.7180 N   0  0  0  0  0  0  0  0  0  0  0  0
   20.7530   10.6460   -2.9340 C   0  0  1  0  0  0  0  0  0  0  0  0
   19.7950    9.8930   -2.2130 O   0  0  0  0  0  0  0  0  0  0  0  0
   25.7179    6.0028   -7.5461 H   0  0  0  0  0  0  0  0  0  0  0  0
   25.9649   10.8471   -8.3118 H   0  0  0  0  0  0  0  0  0  0  0  0
   27.6776   10.0109  -10.2694 H   0  0  0  0  0  0  0  0  0  0  0  0
   25.0439   10.6955   -4.5870 H   0  0  0  0  0  0  0  0  0  0  0  0
   26.3819   10.6274   -5.7835 H   0  0  0  0  0  0  0  0  0  0  0  0
   25.2470   12.0197   -5.7835 H   0  0  0  0  0  0  0  0  0  0  0  0
   29.2805    6.9779  -11.7893 H   0  0  0  0  0  0  0  0  0  0  0  0
   31.4801   11.3854  -12.9218 H   0  0  0  0  0  0  0  0  0  0  0  0
   28.8578   11.7857  -13.4613 H   0  0  0  0  0  0  0  0  0  0  0  0
   26.4823    9.7897  -11.7588 H   0  0  0  0  0  0  0  0  0  0  0  0
   26.6421   10.6967  -13.3011 H   0  0  0  0  0  0  0  0  0  0  0  0
   26.7293    8.9026  -13.3011 H   0  0  0  0  0  0  0  0  0  0  0  0
   24.2326    6.3664   -5.7660 H   0  0  0  0  0  0  0  0  0  0  0  0
   24.7350    8.2550   -3.4369 H   0  0  0  0  0  0  0  0  0  0  0  0
   20.3756    9.6245   -5.4163 H   0  0  0  0  0  0  0  0  0  0  0  0
   21.3394   11.2486   -2.2248 H   0  0  0  0  0  0  0  0  0  0  0  0
   20.2165   11.2876   -3.6485 H   0  0  0  0  0  0  0  0  0  0  0  0
   19.9454   10.0112   -1.2417 H   0  0  0  0  0  0  0  0  0  0  0  0
  1  7  1  0
  1  2  2  0
  1  5  1  0
  2  3  1  0
  2 19  1  0
  3  4  1  0
  4  8  2  0
  4  6  1  0
  6 10  1  0
  6  7  2  0
  8  9  1  0
  9 12  1  0
  9 10  2  0
 12 13  1  0
 13 17  1  0
 13 14  2  0
 14 15  1  0
 15 16  2  0
 16 17  1  0
 17 18  1  0
  5 11  1  0
 19 20  1  0
 20 25  1  0
 20 21  2  0
 21 22  1  0
 22 23  2  0
 23 24  1  0
 23 26  1  0
 24 25  2  0
 26 27  1  0
  3 28  1  0
  7 29  1  0
 10 30  1  0
 11 31  1  1
 11 32  1  0
 11 33  1  0
 12 34  1  0
 15 35  1  0
 16 36  1  0
 18 37  1  1
 18 38  1  0
 18 39  1  0
 19 40  1  0
 21 41  1  0
 24 42  1  0
 26 43  1  1
 26 44  1  0
 27 45  1  0
M  END
>  <Pose ID>  (108)
87

>  <Score>  (108)
-6.596097469329834

>  <smiles>  (108)
COc1cc2cc(Nc3nccn3C)nc-2[nH]c1Nc1cnc(CO)cn1

$$$$

     RDKit          3D

 39 42  0  0  0  0  0  0  0  0999 V2000
   25.1640    9.4530   -6.8650 C   0  0  0  0  0  0  0  0  0  0  0  0
   25.0020    8.0920   -6.6220 C   0  0  0  0  0  0  0  0  0  0  0  0
   25.6500    7.1600   -7.4200 N   0  0  0  0  0  0  0  0  0  0  0  0
   26.4650    7.5870   -8.4640 C   0  0  0  0  0  0  0  0  0  0  0  0
   24.6640   10.4920   -6.2550 O   0  0  0  0  0  0  0  0  0  0  0  0
   26.6290    8.9430   -8.7060 C   0  0  0  0  0  0  0  0  0  0  0  0
   25.9800    9.8770   -7.9090 C   0  0  0  0  0  0  0  0  0  0  0  0
   27.1870    6.8850   -9.3570 N   0  0  0  0  0  0  0  0  0  0  0  0
   27.8270    7.7690  -10.1980 C   0  0  0  0  0  0  0  0  0  0  0  0
   27.3730    8.9970   -9.6690 C   0  0  0  0  0  0  0  0  0  0  0  0
   25.5960   11.1310   -5.3900 C   0  0  1  0  0  0  0  0  0  0  0  0
   28.6810    7.7050  -11.2720 N   0  0  0  0  0  0  0  0  0  0  0  0
   29.1250    8.8400  -11.8620 C   0  0  0  0  0  0  0  0  0  0  0  0
   30.4950    9.1750  -11.9780 N   0  0  0  0  0  0  0  0  0  0  0  0
   30.5840   10.4050  -12.6470 C   0  0  0  0  0  0  0  0  0  0  0  0
   29.2090   10.6720  -12.8630 C   0  0  0  0  0  0  0  0  0  0  0  0
   28.3430    9.7380  -12.4080 N   0  0  0  0  0  0  0  0  0  0  0  0
   26.8750    9.7740  -12.5430 C   0  0  1  0  0  0  0  0  0  0  0  0
   24.2180    7.4430   -5.6480 C   0  0  0  0  0  0  0  0  0  0  0  0
   23.0810    8.0660   -5.1500 N   0  0  0  0  0  0  0  0  0  0  0  0
   22.3360    7.4550   -4.1470 C   0  0  0  0  0  0  0  0  0  0  0  0
   24.6130    6.2090   -5.1430 C   0  0  0  0  0  0  0  0  0  0  0  0
   22.7310    6.2220   -3.6430 C   0  0  0  0  0  0  0  0  0  0  0  0
   23.8540    5.5820   -4.1300 N   0  0  0  0  0  0  0  0  0  0  0  0
   25.5279    6.1533   -7.2398 H   0  0  0  0  0  0  0  0  0  0  0  0
   26.1111   10.9518   -8.1031 H   0  0  0  0  0  0  0  0  0  0  0  0
   27.6775    9.9591  -10.1068 H   0  0  0  0  0  0  0  0  0  0  0  0
   25.3162   10.9392   -4.3436 H   0  0  0  0  0  0  0  0  0  0  0  0
   26.6040   10.7331   -5.5789 H   0  0  0  0  0  0  0  0  0  0  0  0
   25.5882   12.2146   -5.5789 H   0  0  0  0  0  0  0  0  0  0  0  0
   28.9853    6.7886  -11.6305 H   0  0  0  0  0  0  0  0  0  0  0  0
   31.4698   10.9949  -12.9250 H   0  0  0  0  0  0  0  0  0  0  0  0
   28.8661   11.5854  -13.3710 H   0  0  0  0  0  0  0  0  0  0  0  0
   26.4151    9.7853  -11.5438 H   0  0  0  0  0  0  0  0  0  0  0  0
   26.5795   10.6797  -13.0929 H   0  0  0  0  0  0  0  0  0  0  0  0
   26.5354    8.8839  -13.0929 H   0  0  0  0  0  0  0  0  0  0  0  0
   21.4348    7.9476   -3.7531 H   0  0  0  0  0  0  0  0  0  0  0  0
   25.5180    5.7203   -5.5330 H   0  0  0  0  0  0  0  0  0  0  0  0
   22.1408    5.7486   -2.8445 H   0  0  0  0  0  0  0  0  0  0  0  0
  1  7  1  0
  1  2  2  0
  1  5  1  0
  2  3  1  0
  2 19  1  0
  3  4  1  0
  4  8  2  0
  4  6  1  0
  6 10  1  0
  6  7  2  0
  8  9  1  0
  9 12  1  0
  9 10  2  0
 12 13  1  0
 13 17  1  0
 13 14  2  0
 14 15  1  0
 15 16  2  0
 16 17  1  0
 17 18  1  0
 19 20  2  0
 19 22  1  0
 20 21  1  0
 21 23  2  0
 22 24  2  0
 23 24  1  0
  5 11  1  0
  3 25  1  0
  7 26  1  0
 10 27  1  0
 11 28  1  1
 11 29  1  0
 11 30  1  0
 12 31  1  0
 15 32  1  0
 16 33  1  0
 18 34  1  1
 18 35  1  0
 18 36  1  0
 21 37  1  0
 22 38  1  0
 23 39  1  0
M  END
>  <Pose ID>  (109)
44

>  <Score>  (109)
-6.593538761138916

>  <smiles>  (109)
COc1cc2cc(Nc3nccn3C)nc-2[nH]c1-c1cnccn1

$$$$

     RDKit          3D

 43 46  0  0  0  0  0  0  0  0999 V2000
   25.4090    9.0330   -7.2060 C   0  0  0  0  0  0  0  0  0  0  0  0
   25.4560    7.6470   -7.0800 C   0  0  0  0  0  0  0  0  0  0  0  0
   26.2260    6.8930   -7.9540 N   0  0  0  0  0  0  0  0  0  0  0  0
   26.9550    7.5240   -8.9570 C   0  0  0  0  0  0  0  0  0  0  0  0
   24.7700    9.9310   -6.5100 O   0  0  0  0  0  0  0  0  0  0  0  0
   26.9130    8.9040   -9.0820 C   0  0  0  0  0  0  0  0  0  0  0  0
   26.1420    9.6600   -8.2100 C   0  0  0  0  0  0  0  0  0  0  0  0
   27.7630    7.0150   -9.9070 N   0  0  0  0  0  0  0  0  0  0  0  0
   28.2540    8.0520  -10.6690 C   0  0  0  0  0  0  0  0  0  0  0  0
   27.6290    9.1480  -10.0370 C   0  0  0  0  0  0  0  0  0  0  0  0
   25.6070   10.6270   -5.5940 C   0  0  1  0  0  0  0  0  0  0  0  0
   29.0940    8.2050  -11.7450 N   0  0  0  0  0  0  0  0  0  0  0  0
   29.3570    9.4400  -12.2370 C   0  0  0  0  0  0  0  0  0  0  0  0
   30.6600    9.9870  -12.3230 N   0  0  0  0  0  0  0  0  0  0  0  0
   30.5560   11.2650  -12.8830 C   0  0  0  0  0  0  0  0  0  0  0  0
   29.1540   11.3430  -13.0790 C   0  0  0  0  0  0  0  0  0  0  0  0
   28.4430   10.2550  -12.7020 N   0  0  0  0  0  0  0  0  0  0  0  0
   26.9840   10.0820  -12.8360 C   0  0  1  0  0  0  0  0  0  0  0  0
   24.8380    6.8060   -6.1870 N   0  0  0  0  0  0  0  0  0  0  0  0
   23.9470    7.3000   -5.1150 C   0  0  2  0  0  0  0  0  0  0  0  0
   22.7470    6.4050   -5.0000 C   0  0  1  0  0  0  0  0  0  0  0  0
   21.8730    7.6900   -4.9250 C   0  0  1  0  0  0  0  0  0  0  0  0
   23.0780    8.4260   -5.4060 C   0  0  1  0  0  0  0  0  0  0  0  0
   26.2578    5.8678   -7.8604 H   0  0  0  0  0  0  0  0  0  0  0  0
   26.1101   10.7548   -8.3122 H   0  0  0  0  0  0  0  0  0  0  0  0
   27.7817   10.1781  -10.3913 H   0  0  0  0  0  0  0  0  0  0  0  0
   25.3093   10.3794   -4.5644 H   0  0  0  0  0  0  0  0  0  0  0  0
   26.6537   10.3293   -5.7547 H   0  0  0  0  0  0  0  0  0  0  0  0
   25.5052   11.7104   -5.7547 H   0  0  0  0  0  0  0  0  0  0  0  0
   29.5260    7.3772  -12.1799 H   0  0  0  0  0  0  0  0  0  0  0  0
   31.3411   12.0019  -13.1079 H   0  0  0  0  0  0  0  0  0  0  0  0
   28.6736   12.2333  -13.5110 H   0  0  0  0  0  0  0  0  0  0  0  0
   26.5279   10.0279  -11.8365 H   0  0  0  0  0  0  0  0  0  0  0  0
   26.5624   10.9364  -13.3857 H   0  0  0  0  0  0  0  0  0  0  0  0
   26.7739    9.1527  -13.3857 H   0  0  0  0  0  0  0  0  0  0  0  0
   25.0014    5.7922   -6.2671 H   0  0  0  0  0  0  0  0  0  0  0  0
   24.6926    7.4449   -4.3193 H   0  0  0  0  0  0  0  0  0  0  0  0
   22.5597    5.7747   -5.8818 H   0  0  0  0  0  0  0  0  0  0  0  0
   22.6848    5.6197   -4.2322 H   0  0  0  0  0  0  0  0  0  0  0  0
   21.0151    7.7069   -5.6133 H   0  0  0  0  0  0  0  0  0  0  0  0
   21.3327    7.9806   -4.0120 H   0  0  0  0  0  0  0  0  0  0  0  0
   23.3096    9.3255   -4.8167 H   0  0  0  0  0  0  0  0  0  0  0  0
   23.0768    8.8574   -6.4179 H   0  0  0  0  0  0  0  0  0  0  0  0
  1  7  1  0
  1  2  2  0
  1  5  1  0
  2  3  1  0
  2 19  1  0
  3  4  1  0
  4  8  2  0
  4  6  1  0
  6 10  1  0
  6  7  2  0
  8  9  1  0
  9 12  1  0
  9 10  2  0
 12 13  1  0
 13 17  1  0
 13 14  2  0
 14 15  1  0
 15 16  2  0
 16 17  1  0
 17 18  1  0
  5 11  1  0
 19 20  1  0
 20 23  1  0
 20 21  1  0
 21 22  1  0
 22 23  1  0
  3 24  1  0
  7 25  1  0
 10 26  1  0
 11 27  1  1
 11 28  1  0
 11 29  1  0
 12 30  1  0
 15 31  1  0
 16 32  1  0
 18 33  1  1
 18 34  1  0
 18 35  1  0
 19 36  1  0
 20 37  1  1
 21 38  1  6
 21 39  1  0
 22 40  1  6
 22 41  1  0
 23 42  1  1
 23 43  1  0
M  END
>  <Pose ID>  (110)
64

>  <Score>  (110)
-6.570353031158447

>  <smiles>  (110)
COc1cc2cc(Nc3nccn3C)nc-2[nH]c1NC1CCC1

$$$$

     RDKit          3D

 56 60  0  0  0  0  0  0  0  0999 V2000
   25.1810    9.2100   -7.2650 C   0  0  0  0  0  0  0  0  0  0  0  0
   25.2430    7.8370   -7.0450 C   0  0  0  0  0  0  0  0  0  0  0  0
   26.0570    7.0410   -7.8420 N   0  0  0  0  0  0  0  0  0  0  0  0
   26.8170    7.6200   -8.8560 C   0  0  0  0  0  0  0  0  0  0  0  0
   24.5040   10.1390   -6.6520 O   0  0  0  0  0  0  0  0  0  0  0  0
   26.7590    8.9890   -9.0730 C   0  0  0  0  0  0  0  0  0  0  0  0
   25.9420    9.7870   -8.2780 C   0  0  0  0  0  0  0  0  0  0  0  0
   27.6680    7.0660   -9.7390 N   0  0  0  0  0  0  0  0  0  0  0  0
   28.1710    8.0610  -10.5470 C   0  0  0  0  0  0  0  0  0  0  0  0
   27.5080    9.1840  -10.0100 C   0  0  0  0  0  0  0  0  0  0  0  0
   25.2940   10.9070   -5.7520 C   0  0  1  0  0  0  0  0  0  0  0  0
   29.0500    8.1590  -11.5980 N   0  0  0  0  0  0  0  0  0  0  0  0
   29.3140    9.3640  -12.1570 C   0  0  0  0  0  0  0  0  0  0  0  0
   30.6120    9.9250  -12.2310 N   0  0  0  0  0  0  0  0  0  0  0  0
   30.5090   11.1630  -12.8760 C   0  0  0  0  0  0  0  0  0  0  0  0
   29.1160   11.2040  -13.1270 C   0  0  0  0  0  0  0  0  0  0  0  0
   28.4070   10.1300  -12.7110 N   0  0  0  0  0  0  0  0  0  0  0  0
   26.9570    9.9240  -12.8870 C   0  0  1  0  0  0  0  0  0  0  0  0
   24.5020    7.1570   -5.7980 C   0  0  0  0  0  0  0  0  0  0  0  0
   23.1650    6.9070   -6.0800 C   0  0  0  0  0  0  0  0  0  0  0  0
   22.3570    6.2930   -5.1280 N   0  0  0  0  0  0  0  0  0  0  0  0
   22.8880    5.9290   -3.8960 C   0  0  0  0  0  0  0  0  0  0  0  0
   24.2260    6.1780   -3.6160 N   0  0  0  0  0  0  0  0  0  0  0  0
   25.0300    6.7900   -4.5680 C   0  0  0  0  0  0  0  0  0  0  0  0
   22.0150    5.2630   -2.8640 C   0  0  1  0  0  0  0  0  0  0  0  0
   21.1790    6.3690   -2.2150 C   0  0  0  0  0  0  0  0  0  0  0  0
   20.2490    5.8870   -1.4400 O   0  0  0  0  0  0  0  0  0  0  0  0
   21.4890    7.6260   -2.2340 N   0  0  0  0  0  0  0  0  0  0  0  0
   20.7620    8.6620   -1.7070 C   0  0  2  0  0  0  0  0  0  0  0  0
   19.2680    8.7050   -2.2090 C   0  0  1  0  0  0  0  0  0  0  0  0
   19.4340   10.2210   -2.4370 C   0  0  1  0  0  0  0  0  0  0  0  0
   20.9180    9.9990   -2.2940 C   0  0  1  0  0  0  0  0  0  0  0  0
   26.0984    6.0242   -7.6832 H   0  0  0  0  0  0  0  0  0  0  0  0
   25.8975   10.8726   -8.4498 H   0  0  0  0  0  0  0  0  0  0  0  0
   27.6621   10.1925  -10.4214 H   0  0  0  0  0  0  0  0  0  0  0  0
   25.0272   10.6476   -4.7169 H   0  0  0  0  0  0  0  0  0  0  0  0
   26.3589   10.6896   -5.9216 H   0  0  0  0  0  0  0  0  0  0  0  0
   25.1068   11.9776   -5.9216 H   0  0  0  0  0  0  0  0  0  0  0  0
   29.5102    7.3126  -11.9624 H   0  0  0  0  0  0  0  0  0  0  0  0
   31.2906   11.8977  -13.1195 H   0  0  0  0  0  0  0  0  0  0  0  0
   28.6391   12.0581  -13.6301 H   0  0  0  0  0  0  0  0  0  0  0  0
   26.4741    9.8554  -11.9011 H   0  0  0  0  0  0  0  0  0  0  0  0
   26.5315   10.7707  -13.4456 H   0  0  0  0  0  0  0  0  0  0  0  0
   26.7842    8.9923  -13.4456 H   0  0  0  0  0  0  0  0  0  0  0  0
   22.7452    7.1943   -7.0553 H   0  0  0  0  0  0  0  0  0  0  0  0
   26.0897    6.9848   -4.3466 H   0  0  0  0  0  0  0  0  0  0  0  0
   21.3576    4.5231   -3.3440 H   0  0  0  0  0  0  0  0  0  0  0  0
   22.6218    4.7342   -2.1143 H   0  0  0  0  0  0  0  0  0  0  0  0
   22.3765    7.8741   -2.6941 H   0  0  0  0  0  0  0  0  0  0  0  0
   21.0570    8.4893   -0.6614 H   0  0  0  0  0  0  0  0  0  0  0  0
   19.0783    8.1250   -3.1242 H   0  0  0  0  0  0  0  0  0  0  0  0
   18.4475    8.3066   -1.5942 H   0  0  0  0  0  0  0  0  0  0  0  0
   19.1145   10.5756   -3.4280 H   0  0  0  0  0  0  0  0  0  0  0  0
   18.8946   10.9643   -1.8315 H   0  0  0  0  0  0  0  0  0  0  0  0
   21.4005   10.7172   -1.6148 H   0  0  0  0  0  0  0  0  0  0  0  0
   21.5501   10.1058   -3.1879 H   0  0  0  0  0  0  0  0  0  0  0  0
  1  7  1  0
  1  2  2  0
  1  5  1  0
  2  3  1  0
  2 19  1  0
  3  4  1  0
  4  8  2  0
  4  6  1  0
  6 10  1  0
  6  7  2  0
  8  9  1  0
  9 12  1  0
  9 10  2  0
 12 13  1  0
 13 17  1  0
 13 14  2  0
 14 15  1  0
 15 16  2  0
 16 17  1  0
 17 18  1  0
 19 20  2  0
 19 24  1  0
 20 21  1  0
 21 22  2  0
 22 23  1  0
 22 25  1  0
 23 24  2  0
 25 26  1  0
 26 28  1  0
 26 27  2  0
 28 29  1  0
 29 32  1  0
 29 30  1  0
 30 31  1  0
 31 32  1  0
  5 11  1  0
  3 33  1  0
  7 34  1  0
 10 35  1  0
 11 36  1  1
 11 37  1  0
 11 38  1  0
 12 39  1  0
 15 40  1  0
 16 41  1  0
 18 42  1  1
 18 43  1  0
 18 44  1  0
 20 45  1  0
 24 46  1  0
 25 47  1  6
 25 48  1  0
 28 49  1  0
 29 50  1  1
 30 51  1  6
 30 52  1  0
 31 53  1  6
 31 54  1  0
 32 55  1  1
 32 56  1  0
M  END
>  <Pose ID>  (111)
42

>  <Score>  (111)
-6.554540157318115

>  <smiles>  (111)
COc1cc2cc(Nc3nccn3C)nc-2[nH]c1-c1cnc(CC(=O)NC2CCC2)nc1

$$$$

     RDKit          3D

 47 50  0  0  0  0  0  0  0  0999 V2000
   25.3050    9.3490   -7.0550 C   0  0  0  0  0  0  0  0  0  0  0  0
   25.2440    7.9700   -6.8660 C   0  0  0  0  0  0  0  0  0  0  0  0
   25.9520    7.1210   -7.7030 N   0  0  0  0  0  0  0  0  0  0  0  0
   26.7280    7.6490   -8.7340 C   0  0  0  0  0  0  0  0  0  0  0  0
   24.7360   10.3240   -6.4020 O   0  0  0  0  0  0  0  0  0  0  0  0
   26.7900    9.0230   -8.9210 C   0  0  0  0  0  0  0  0  0  0  0  0
   26.0810    9.8730   -8.0850 C   0  0  0  0  0  0  0  0  0  0  0  0
   27.4920    7.0370   -9.6580 N   0  0  0  0  0  0  0  0  0  0  0  0
   28.0600    7.9970  -10.4650 C   0  0  0  0  0  0  0  0  0  0  0  0
   27.5210    9.1660   -9.8850 C   0  0  0  0  0  0  0  0  0  0  0  0
   25.6260   10.9940   -5.5160 C   0  0  1  0  0  0  0  0  0  0  0  0
   28.9090    8.0370  -11.5450 N   0  0  0  0  0  0  0  0  0  0  0  0
   29.2640    9.2250  -12.0910 C   0  0  0  0  0  0  0  0  0  0  0  0
   30.6070    9.6660  -12.1990 N   0  0  0  0  0  0  0  0  0  0  0  0
   30.5980   10.9230  -12.8170 C   0  0  0  0  0  0  0  0  0  0  0  0
   29.2050   11.0970  -13.0190 C   0  0  0  0  0  0  0  0  0  0  0  0
   28.4150   10.0860  -12.5950 N   0  0  0  0  0  0  0  0  0  0  0  0
   26.9480   10.0190  -12.7230 C   0  0  1  0  0  0  0  0  0  0  0  0
   24.4210    7.4090   -5.7650 C   0  0  0  0  0  0  0  0  0  0  0  0
   23.9680    6.2680   -5.8160 O   0  0  0  0  0  0  0  0  0  0  0  0
   24.0950    8.1820   -4.5910 N   0  0  0  0  0  0  0  0  0  0  0  0
   23.5380    7.6860   -3.4720 C   0  0  0  0  0  0  0  0  0  0  0  0
   22.5160    8.4080   -2.8700 N   0  0  0  0  0  0  0  0  0  0  0  0
   21.9120    7.9290   -1.7130 C   0  0  0  0  0  0  0  0  0  0  0  0
   22.3320    6.7260   -1.1600 C   0  0  0  0  0  0  0  0  0  0  0  0
   23.3550    6.0020   -1.7630 C   0  0  0  0  0  0  0  0  0  0  0  0
   23.9360    6.4700   -2.9360 C   0  0  0  0  0  0  0  0  0  0  0  0
   20.8030    8.7150   -1.0590 C   0  0  1  0  0  0  0  0  0  0  0  0
   25.9047    6.1016   -7.5633 H   0  0  0  0  0  0  0  0  0  0  0  0
   26.1320   10.9614   -8.2360 H   0  0  0  0  0  0  0  0  0  0  0  0
   27.7514   10.1638  -10.2866 H   0  0  0  0  0  0  0  0  0  0  0  0
   25.3395   10.7783   -4.4761 H   0  0  0  0  0  0  0  0  0  0  0  0
   26.6533   10.6432   -5.6936 H   0  0  0  0  0  0  0  0  0  0  0  0
   25.5730   12.0783   -5.6936 H   0  0  0  0  0  0  0  0  0  0  0  0
   29.2769    7.1602  -11.9409 H   0  0  0  0  0  0  0  0  0  0  0  0
   31.4357   11.5881  -13.0735 H   0  0  0  0  0  0  0  0  0  0  0  0
   28.7926   12.0003  -13.4922 H   0  0  0  0  0  0  0  0  0  0  0  0
   26.4931    9.9982  -11.7217 H   0  0  0  0  0  0  0  0  0  0  0  0
   26.5871   10.9016  -13.2714 H   0  0  0  0  0  0  0  0  0  0  0  0
   26.6691    9.1072  -13.2714 H   0  0  0  0  0  0  0  0  0  0  0  0
   24.3048    9.1902   -4.6116 H   0  0  0  0  0  0  0  0  0  0  0  0
   21.8552    6.3457   -0.2446 H   0  0  0  0  0  0  0  0  0  0  0  0
   23.7037    5.0609   -1.3126 H   0  0  0  0  0  0  0  0  0  0  0  0
   24.7123    5.8754   -3.4398 H   0  0  0  0  0  0  0  0  0  0  0  0
   20.9003    8.6461    0.0345 H   0  0  0  0  0  0  0  0  0  0  0  0
   20.8693    9.7688   -1.3673 H   0  0  0  0  0  0  0  0  0  0  0  0
   19.8307    8.3033   -1.3673 H   0  0  0  0  0  0  0  0  0  0  0  0
  1  7  1  0
  1  2  2  0
  1  5  1  0
  2  3  1  0
  2 19  1  0
  3  4  1  0
  4  8  2  0
  4  6  1  0
  6 10  1  0
  6  7  2  0
  8  9  1  0
  9 12  1  0
  9 10  2  0
 19 20  2  0
 19 21  1  0
 21 22  1  0
 22 27  1  0
 22 23  2  0
 23 24  1  0
 24 25  2  0
 24 28  1  0
 25 26  1  0
 26 27  2  0
 12 13  1  0
 13 17  1  0
 13 14  2  0
 14 15  1  0
 15 16  2  0
 16 17  1  0
 17 18  1  0
  5 11  1  0
  3 29  1  0
  7 30  1  0
 10 31  1  0
 11 32  1  1
 11 33  1  0
 11 34  1  0
 12 35  1  0
 15 36  1  0
 16 37  1  0
 18 38  1  1
 18 39  1  0
 18 40  1  0
 21 41  1  0
 25 42  1  0
 26 43  1  0
 27 44  1  0
 28 45  1  1
 28 46  1  0
 28 47  1  0
M  END
>  <Pose ID>  (112)
76

>  <Score>  (112)
-6.5238261222839355

>  <smiles>  (112)
COc1cc2cc(Nc3nccn3C)nc-2[nH]c1C(=O)Nc1cccc(C)n1

$$$$

     RDKit          3D

 47 50  0  0  0  0  0  0  0  0999 V2000
   25.2420    9.1820   -7.1370 C   0  0  0  0  0  0  0  0  0  0  0  0
   25.2990    7.8050   -6.9410 C   0  0  0  0  0  0  0  0  0  0  0  0
   26.0780    7.0150   -7.7770 N   0  0  0  0  0  0  0  0  0  0  0  0
   26.8090    7.6030   -8.8090 C   0  0  0  0  0  0  0  0  0  0  0  0
   24.5930   10.1060   -6.4860 O   0  0  0  0  0  0  0  0  0  0  0  0
   26.7540    8.9750   -9.0010 C   0  0  0  0  0  0  0  0  0  0  0  0
   25.9730    9.7660   -8.1670 C   0  0  0  0  0  0  0  0  0  0  0  0
   27.6230    7.0550   -9.7290 N   0  0  0  0  0  0  0  0  0  0  0  0
   28.1060    8.0600  -10.5380 C   0  0  0  0  0  0  0  0  0  0  0  0
   27.4720    9.1800   -9.9620 C   0  0  0  0  0  0  0  0  0  0  0  0
   25.4220   10.8520   -5.6030 C   0  0  1  0  0  0  0  0  0  0  0  0
   28.9490    8.1670  -11.6180 N   0  0  0  0  0  0  0  0  0  0  0  0
   29.2040    9.3780  -12.1670 C   0  0  0  0  0  0  0  0  0  0  0  0
   30.5040    9.9310  -12.2770 N   0  0  0  0  0  0  0  0  0  0  0  0
   30.3910   11.1800  -12.8980 C   0  0  0  0  0  0  0  0  0  0  0  0
   28.9890   11.2360  -13.1010 C   0  0  0  0  0  0  0  0  0  0  0  0
   28.2860   10.1610  -12.6750 N   0  0  0  0  0  0  0  0  0  0  0  0
   26.8290    9.9710  -12.8050 C   0  0  1  0  0  0  0  0  0  0  0  0
   24.5960    7.1100   -5.6810 C   0  0  0  0  0  0  0  0  0  0  0  0
   23.2480    6.8760   -5.9190 C   0  0  0  0  0  0  0  0  0  0  0  0
   22.4680    6.2530   -4.9500 N   0  0  0  0  0  0  0  0  0  0  0  0
   23.0390    5.8660   -3.7430 C   0  0  0  0  0  0  0  0  0  0  0  0
   24.3880    6.0990   -3.5060 N   0  0  0  0  0  0  0  0  0  0  0  0
   25.1630    6.7200   -4.4750 C   0  0  0  0  0  0  0  0  0  0  0  0
   22.4900    5.2460   -2.6470 N   0  0  0  0  0  0  0  0  0  0  0  0
   22.6430    5.5520   -1.3900 C   0  0  0  0  0  0  0  0  0  0  0  0
   23.2270    6.5920   -1.0380 O   0  0  0  0  0  0  0  0  0  0  0  0
   22.0960    4.5650   -0.4170 C   0  0  1  0  0  0  0  0  0  0  0  0
   23.1450    4.3780    0.5450 O   0  0  0  0  0  0  0  0  0  0  0  0
   26.1157    5.9956   -7.6348 H   0  0  0  0  0  0  0  0  0  0  0  0
   25.9326   10.8544   -8.3212 H   0  0  0  0  0  0  0  0  0  0  0  0
   27.6197   10.1935  -10.3632 H   0  0  0  0  0  0  0  0  0  0  0  0
   25.1571   10.6137   -4.5623 H   0  0  0  0  0  0  0  0  0  0  0  0
   26.4757   10.5920   -5.7819 H   0  0  0  0  0  0  0  0  0  0  0  0
   25.2742   11.9272   -5.7819 H   0  0  0  0  0  0  0  0  0  0  0  0
   29.3885    7.3226  -12.0113 H   0  0  0  0  0  0  0  0  0  0  0  0
   31.1704   11.9121  -13.1560 H   0  0  0  0  0  0  0  0  0  0  0  0
   28.5023   12.1006  -13.5759 H   0  0  0  0  0  0  0  0  0  0  0  0
   26.3762    9.9120  -11.8043 H   0  0  0  0  0  0  0  0  0  0  0  0
   26.3960   10.8203  -13.3538 H   0  0  0  0  0  0  0  0  0  0  0  0
   26.6283    9.0391  -13.3538 H   0  0  0  0  0  0  0  0  0  0  0  0
   22.7968    7.1833   -6.8740 H   0  0  0  0  0  0  0  0  0  0  0  0
   26.2311    6.9041   -4.2870 H   0  0  0  0  0  0  0  0  0  0  0  0
   21.8815    4.4385   -2.8436 H   0  0  0  0  0  0  0  0  0  0  0  0
   21.1912    4.9599    0.0682 H   0  0  0  0  0  0  0  0  0  0  0  0
   21.8046    3.6217   -0.9020 H   0  0  0  0  0  0  0  0  0  0  0  0
   22.7704    4.4448    1.4589 H   0  0  0  0  0  0  0  0  0  0  0  0
  1  7  1  0
  1  2  2  0
  1  5  1  0
  2  3  1  0
  2 19  1  0
  3  4  1  0
  4  8  2  0
  4  6  1  0
  6 10  1  0
  6  7  2  0
  8  9  1  0
  9 12  1  0
  9 10  2  0
 19 20  2  0
 19 24  1  0
 20 21  1  0
 21 22  2  0
 22 23  1  0
 22 25  1  0
 23 24  2  0
 25 26  1  0
 26 27  2  0
 26 28  1  0
 28 29  1  0
 12 13  1  0
 13 17  1  0
 13 14  2  0
 14 15  1  0
 15 16  2  0
 16 17  1  0
 17 18  1  0
  5 11  1  0
  3 30  1  0
  7 31  1  0
 10 32  1  0
 11 33  1  1
 11 34  1  0
 11 35  1  0
 12 36  1  0
 15 37  1  0
 16 38  1  0
 18 39  1  1
 18 40  1  0
 18 41  1  0
 20 42  1  0
 24 43  1  0
 25 44  1  0
 28 45  1  1
 28 46  1  0
 29 47  1  0
M  END
>  <Pose ID>  (113)
43

>  <Score>  (113)
-6.48784875869751

>  <smiles>  (113)
COc1cc2cc(Nc3nccn3C)nc-2[nH]c1-c1cnc(NC(=O)CO)nc1

$$$$

     RDKit          3D

 42 45  0  0  0  0  0  0  0  0999 V2000
   25.2360    9.4040   -6.9530 C   0  0  0  0  0  0  0  0  0  0  0  0
   25.1030    8.0350   -6.7440 C   0  0  0  0  0  0  0  0  0  0  0  0
   25.7660    7.1360   -7.5680 N   0  0  0  0  0  0  0  0  0  0  0  0
   26.5690    7.6090   -8.6040 C   0  0  0  0  0  0  0  0  0  0  0  0
   24.7190   10.4180   -6.3150 O   0  0  0  0  0  0  0  0  0  0  0  0
   26.7050    8.9740   -8.8090 C   0  0  0  0  0  0  0  0  0  0  0  0
   26.0420    9.8710   -7.9870 C   0  0  0  0  0  0  0  0  0  0  0  0
   27.3020    6.9440   -9.5160 N   0  0  0  0  0  0  0  0  0  0  0  0
   27.9210    7.8620  -10.3350 C   0  0  0  0  0  0  0  0  0  0  0  0
   27.4450    9.0650   -9.7730 C   0  0  0  0  0  0  0  0  0  0  0  0
   25.6420   11.0520   -5.4350 C   0  0  1  0  0  0  0  0  0  0  0  0
   28.7740    7.8410  -11.4140 N   0  0  0  0  0  0  0  0  0  0  0  0
   29.1930    9.0000  -11.9760 C   0  0  0  0  0  0  0  0  0  0  0  0
   30.5560    9.3660  -12.0870 N   0  0  0  0  0  0  0  0  0  0  0  0
   30.6160   10.6140  -12.7230 C   0  0  0  0  0  0  0  0  0  0  0  0
   29.2350   10.8590  -12.9290 C   0  0  0  0  0  0  0  0  0  0  0  0
   28.3900    9.8970  -12.4950 N   0  0  0  0  0  0  0  0  0  0  0  0
   26.9200    9.9080  -12.6270 C   0  0  1  0  0  0  0  0  0  0  0  0
   24.3150    7.5740   -5.7250 N   0  0  0  0  0  0  0  0  0  0  0  0
   24.3230    6.4690   -4.9210 C   0  0  0  0  0  0  0  0  0  0  0  0
   23.3640    6.5380   -4.0910 C   0  0  0  0  0  0  0  0  0  0  0  0
   23.2420    8.3150   -5.2820 C   0  0  0  0  0  0  0  0  0  0  0  0
   22.7120    7.5380   -4.2820 C   0  0  0  0  0  0  0  0  0  0  0  0
   23.0780    5.5160   -3.0190 C   0  0  1  0  0  0  0  0  0  0  0  0
   25.6648    6.1226   -7.4142 H   0  0  0  0  0  0  0  0  0  0  0  0
   26.1528   10.9529   -8.1518 H   0  0  0  0  0  0  0  0  0  0  0  0
   27.7296   10.0435  -10.1872 H   0  0  0  0  0  0  0  0  0  0  0  0
   25.3514   10.8524   -4.3930 H   0  0  0  0  0  0  0  0  0  0  0  0
   26.6523   10.6563   -5.6161 H   0  0  0  0  0  0  0  0  0  0  0  0
   25.6352   12.1370   -5.6161 H   0  0  0  0  0  0  0  0  0  0  0  0
   29.0954    6.9401  -11.7962 H   0  0  0  0  0  0  0  0  0  0  0  0
   31.4885   11.2294  -12.9875 H   0  0  0  0  0  0  0  0  0  0  0  0
   28.8723   11.7776  -13.4134 H   0  0  0  0  0  0  0  0  0  0  0  0
   26.4621    9.9114  -11.6269 H   0  0  0  0  0  0  0  0  0  0  0  0
   26.6079   10.8085  -13.1763 H   0  0  0  0  0  0  0  0  0  0  0  0
   26.5945    9.0123  -13.1763 H   0  0  0  0  0  0  0  0  0  0  0  0
   25.0493    5.6452   -4.9832 H   0  0  0  0  0  0  0  0  0  0  0  0
   22.8935    9.2940   -5.6427 H   0  0  0  0  0  0  0  0  0  0  0  0
   21.8015    7.7950   -3.7207 H   0  0  0  0  0  0  0  0  0  0  0  0
   23.2071    5.9773   -2.0288 H   0  0  0  0  0  0  0  0  0  0  0  0
   22.0443    5.1547   -3.1232 H   0  0  0  0  0  0  0  0  0  0  0  0
   23.7741    4.6707   -3.1232 H   0  0  0  0  0  0  0  0  0  0  0  0
  1  7  1  0
  1  2  2  0
  1  5  1  0
  2  3  1  0
  2 19  1  0
  3  4  1  0
  4  8  2  0
  4  6  1  0
  6 10  1  0
  6  7  2  0
  8  9  1  0
  9 12  1  0
  9 10  2  0
 12 13  1  0
 13 17  1  0
 13 14  2  0
 14 15  1  0
 15 16  2  0
 16 17  1  0
 17 18  1  0
 19 22  1  0
 19 20  1  0
 20 21  2  0
 21 23  1  0
 21 24  1  0
 22 23  2  0
  5 11  1  0
  3 25  1  0
  7 26  1  0
 10 27  1  0
 11 28  1  1
 11 29  1  0
 11 30  1  0
 12 31  1  0
 15 32  1  0
 16 33  1  0
 18 34  1  1
 18 35  1  0
 18 36  1  0
 20 37  1  0
 22 38  1  0
 23 39  1  0
 24 40  1  1
 24 41  1  0
 24 42  1  0
M  END
>  <Pose ID>  (114)
109

>  <Score>  (114)
-6.480672836303711

>  <smiles>  (114)
COc1cc2cc(Nc3nccn3C)nc-2[nH]c1-n1ccc(C)c1

$$$$

     RDKit          3D

 43 46  0  0  0  0  0  0  0  0999 V2000
   25.2860    9.2690   -6.9560 C   0  0  0  0  0  0  0  0  0  0  0  0
   25.1710    7.8900   -6.7960 C   0  0  0  0  0  0  0  0  0  0  0  0
   25.8320    7.0310   -7.6630 N   0  0  0  0  0  0  0  0  0  0  0  0
   26.6160    7.5520   -8.6920 C   0  0  0  0  0  0  0  0  0  0  0  0
   24.7670   10.2510   -6.2730 O   0  0  0  0  0  0  0  0  0  0  0  0
   26.7330    8.9230   -8.8490 C   0  0  0  0  0  0  0  0  0  0  0  0
   26.0710    9.7840   -7.9840 C   0  0  0  0  0  0  0  0  0  0  0  0
   27.3420    6.9300   -9.6380 N   0  0  0  0  0  0  0  0  0  0  0  0
   27.9400    7.8860  -10.4310 C   0  0  0  0  0  0  0  0  0  0  0  0
   27.4580    9.0630   -9.8190 C   0  0  0  0  0  0  0  0  0  0  0  0
   25.6950   10.8640   -5.3850 C   0  0  1  0  0  0  0  0  0  0  0  0
   28.7750    7.9160  -11.5220 N   0  0  0  0  0  0  0  0  0  0  0  0
   29.1730    9.1000  -12.0440 C   0  0  0  0  0  0  0  0  0  0  0  0
   30.5290    9.4870  -12.1640 N   0  0  0  0  0  0  0  0  0  0  0  0
   30.5650   10.7580  -12.7520 C   0  0  0  0  0  0  0  0  0  0  0  0
   29.1790   10.9950  -12.9300 C   0  0  0  0  0  0  0  0  0  0  0  0
   28.3520   10.0050  -12.5190 N   0  0  0  0  0  0  0  0  0  0  0  0
   26.8810   10.0040  -12.6290 C   0  0  1  0  0  0  0  0  0  0  0  0
   24.3260    7.3290   -5.6800 C   0  0  1  0  0  0  0  0  0  0  0  0
   23.5380    8.5060   -5.1210 C   0  0  0  0  0  0  0  0  0  0  0  0
   22.8250    9.3500   -5.9750 C   0  0  0  0  0  0  0  0  0  0  0  0
   22.0150   10.3410   -5.4440 N   0  0  0  0  0  0  0  0  0  0  0  0
   21.8410   10.4400   -4.0680 C   0  0  0  0  0  0  0  0  0  0  0  0
   22.5150    9.5710   -3.2190 N   0  0  0  0  0  0  0  0  0  0  0  0
   23.3630    8.6050   -3.7450 C   0  0  0  0  0  0  0  0  0  0  0  0
   23.9670    7.8280   -2.9830 O   0  0  0  0  0  0  0  0  0  0  0  0
   25.7437    6.0114   -7.5467 H   0  0  0  0  0  0  0  0  0  0  0  0
   26.1667   10.8725   -8.1109 H   0  0  0  0  0  0  0  0  0  0  0  0
   27.7241   10.0602  -10.1996 H   0  0  0  0  0  0  0  0  0  0  0  0
   25.3942   10.6653   -4.3458 H   0  0  0  0  0  0  0  0  0  0  0  0
   26.6991   10.4509   -5.5614 H   0  0  0  0  0  0  0  0  0  0  0  0
   25.7090   11.9497   -5.5614 H   0  0  0  0  0  0  0  0  0  0  0  0
   29.0993    7.0343  -11.9442 H   0  0  0  0  0  0  0  0  0  0  0  0
   31.4267   11.3934  -13.0046 H   0  0  0  0  0  0  0  0  0  0  0  0
   28.7985   11.9263  -13.3749 H   0  0  0  0  0  0  0  0  0  0  0  0
   26.4380   10.0037  -11.6221 H   0  0  0  0  0  0  0  0  0  0  0  0
   26.5534   10.9019  -13.1734 H   0  0  0  0  0  0  0  0  0  0  0  0
   26.5546    9.1056  -13.1734 H   0  0  0  0  0  0  0  0  0  0  0  0
   23.6417    6.5600   -6.0677 H   0  0  0  0  0  0  0  0  0  0  0  0
   24.9447    6.8528   -4.9052 H   0  0  0  0  0  0  0  0  0  0  0  0
   22.9061    9.2286   -7.0653 H   0  0  0  0  0  0  0  0  0  0  0  0
   21.1701   11.2059   -3.6519 H   0  0  0  0  0  0  0  0  0  0  0  0
   22.3858    9.6431   -2.1997 H   0  0  0  0  0  0  0  0  0  0  0  0
  1  7  1  0
  1  2  2  0
  1  5  1  0
  2  3  1  0
  2 19  1  0
  3  4  1  0
  4  8  2  0
  4  6  1  0
  6 10  1  0
  6  7  2  0
  8  9  1  0
  9 12  1  0
  9 10  2  0
 12 13  1  0
 13 17  1  0
 13 14  2  0
 14 15  1  0
 15 16  2  0
 16 17  1  0
 17 18  1  0
  5 11  1  0
 19 20  1  0
 20 21  2  0
 20 25  1  0
 21 22  1  0
 22 23  2  0
 23 24  1  0
 24 25  1  0
 25 26  2  0
  3 27  1  0
  7 28  1  0
 10 29  1  0
 11 30  1  1
 11 31  1  0
 11 32  1  0
 12 33  1  0
 15 34  1  0
 16 35  1  0
 18 36  1  1
 18 37  1  0
 18 38  1  0
 19 39  1  6
 19 40  1  0
 21 41  1  0
 23 42  1  0
 24 43  1  0
M  END
>  <Pose ID>  (115)
128

>  <Score>  (115)
-6.480165958404541

>  <smiles>  (115)
COc1cc2cc(Nc3nccn3C)nc-2[nH]c1Cc1cnc[nH]c1=O

$$$$

     RDKit          3D

 40 43  0  0  0  0  0  0  0  0999 V2000
   25.1900    9.1920   -6.9890 C   0  0  0  0  0  0  0  0  0  0  0  0
   25.1530    7.8100   -6.8240 C   0  0  0  0  0  0  0  0  0  0  0  0
   25.8720    6.9880   -7.6790 N   0  0  0  0  0  0  0  0  0  0  0  0
   26.6320    7.5450   -8.7040 C   0  0  0  0  0  0  0  0  0  0  0  0
   24.6080   10.1460   -6.3180 O   0  0  0  0  0  0  0  0  0  0  0  0
   26.6700    8.9220   -8.8690 C   0  0  0  0  0  0  0  0  0  0  0  0
   25.9510    9.7470   -8.0150 C   0  0  0  0  0  0  0  0  0  0  0  0
   27.4020    6.9630   -9.6410 N   0  0  0  0  0  0  0  0  0  0  0  0
   27.9490    7.9440  -10.4350 C   0  0  0  0  0  0  0  0  0  0  0  0
   27.3930    9.0950   -9.8330 C   0  0  0  0  0  0  0  0  0  0  0  0
   25.4900   10.8170   -5.4270 C   0  0  1  0  0  0  0  0  0  0  0  0
   28.7890    8.0180  -11.5190 N   0  0  0  0  0  0  0  0  0  0  0  0
   29.1230    9.2200  -12.0480 C   0  0  0  0  0  0  0  0  0  0  0  0
   30.4550    9.6840  -12.1580 N   0  0  0  0  0  0  0  0  0  0  0  0
   30.4220   10.9520  -12.7530 C   0  0  0  0  0  0  0  0  0  0  0  0
   29.0260   11.1070  -12.9440 C   0  0  0  0  0  0  0  0  0  0  0  0
   28.2540   10.0730  -12.5340 N   0  0  0  0  0  0  0  0  0  0  0  0
   26.7870    9.9850  -12.6550 C   0  0  1  0  0  0  0  0  0  0  0  0
   24.3750    7.2670   -5.7880 C   0  0  0  0  0  0  0  0  0  0  0  0
   23.2080    7.8340   -5.2900 N   0  0  0  0  0  0  0  0  0  0  0  0
   22.5300    7.2220   -4.2420 C   0  0  0  0  0  0  0  0  0  0  0  0
   24.8630    6.0880   -5.2380 C   0  0  0  0  0  0  0  0  0  0  0  0
   24.1860    5.4750   -4.1910 N   0  0  0  0  0  0  0  0  0  0  0  0
   23.0480    6.0200   -3.6920 C   0  0  0  0  0  0  0  0  0  0  0  0
   22.4560    5.4640   -2.7500 O   0  0  0  0  0  0  0  0  0  0  0  0
   25.8437    5.9658   -7.5557 H   0  0  0  0  0  0  0  0  0  0  0  0
   25.9823   10.8384   -8.1485 H   0  0  0  0  0  0  0  0  0  0  0  0
   27.6042   10.1033  -10.2185 H   0  0  0  0  0  0  0  0  0  0  0  0
   25.2002   10.5966   -4.3890 H   0  0  0  0  0  0  0  0  0  0  0  0
   26.5198   10.4719   -5.6014 H   0  0  0  0  0  0  0  0  0  0  0  0
   25.4322   11.9016   -5.6014 H   0  0  0  0  0  0  0  0  0  0  0  0
   29.1676    7.1540  -11.9327 H   0  0  0  0  0  0  0  0  0  0  0  0
   31.2474   11.6352  -13.0020 H   0  0  0  0  0  0  0  0  0  0  0  0
   28.5961   12.0122  -13.3977 H   0  0  0  0  0  0  0  0  0  0  0  0
   26.3373    9.9580  -11.6515 H   0  0  0  0  0  0  0  0  0  0  0  0
   26.4109   10.8622  -13.2019 H   0  0  0  0  0  0  0  0  0  0  0  0
   26.5185    9.0691  -13.2019 H   0  0  0  0  0  0  0  0  0  0  0  0
   21.6043    7.6633   -3.8441 H   0  0  0  0  0  0  0  0  0  0  0  0
   25.7867    5.6393   -5.6321 H   0  0  0  0  0  0  0  0  0  0  0  0
   24.5511    4.5993   -3.7901 H   0  0  0  0  0  0  0  0  0  0  0  0
  1  7  1  0
  1  2  2  0
  1  5  1  0
  2  3  1  0
  2 19  1  0
  3  4  1  0
  4  8  2  0
  4  6  1  0
  6 10  1  0
  6  7  2  0
  8  9  1  0
  9 12  1  0
  9 10  2  0
 12 13  1  0
 13 17  1  0
 13 14  2  0
 14 15  1  0
 15 16  2  0
 16 17  1  0
 17 18  1  0
 19 20  1  0
 19 22  2  0
 20 21  2  0
 21 24  1  0
 22 23  1  0
 23 24  1  0
 24 25  2  0
  5 11  1  0
  3 26  1  0
  7 27  1  0
 10 28  1  0
 11 29  1  1
 11 30  1  0
 11 31  1  0
 12 32  1  0
 15 33  1  0
 16 34  1  0
 18 35  1  1
 18 36  1  0
 18 37  1  0
 21 38  1  0
 22 39  1  0
 23 40  1  0
M  END
>  <Pose ID>  (116)
6

>  <Score>  (116)
-6.4759650230407715

>  <smiles>  (116)
COc1cc2cc(Nc3nccn3C)nc-2[nH]c1-c1c[nH]c(=O)cn1

$$$$

     RDKit          3D

 43 46  0  0  0  0  0  0  0  0999 V2000
   25.1400    9.3080   -6.9680 C   0  0  0  0  0  0  0  0  0  0  0  0
   24.9860    7.9390   -6.7630 C   0  0  0  0  0  0  0  0  0  0  0  0
   25.6520    7.0340   -7.5750 N   0  0  0  0  0  0  0  0  0  0  0  0
   26.4800    7.4960   -8.5950 C   0  0  0  0  0  0  0  0  0  0  0  0
   24.6220   10.3250   -6.3370 O   0  0  0  0  0  0  0  0  0  0  0  0
   26.6350    8.8610   -8.7980 C   0  0  0  0  0  0  0  0  0  0  0  0
   25.9680    9.7670   -7.9870 C   0  0  0  0  0  0  0  0  0  0  0  0
   27.2220    6.8250   -9.4960 N   0  0  0  0  0  0  0  0  0  0  0  0
   27.8660    7.7350  -10.3030 C   0  0  0  0  0  0  0  0  0  0  0  0
   27.3940    8.9440   -9.7490 C   0  0  0  0  0  0  0  0  0  0  0  0
   25.5360   10.9500   -5.4420 C   0  0  1  0  0  0  0  0  0  0  0  0
   28.7360    7.7070  -11.3660 N   0  0  0  0  0  0  0  0  0  0  0  0
   29.1790    8.8610  -11.9210 C   0  0  0  0  0  0  0  0  0  0  0  0
   30.5460    9.2110  -12.0070 N   0  0  0  0  0  0  0  0  0  0  0  0
   30.6340   10.4580  -12.6400 C   0  0  0  0  0  0  0  0  0  0  0  0
   29.2600   10.7210  -12.8700 C   0  0  0  0  0  0  0  0  0  0  0  0
   28.3960    9.7670  -12.4520 N   0  0  0  0  0  0  0  0  0  0  0  0
   26.9300    9.7950  -12.6090 C   0  0  1  0  0  0  0  0  0  0  0  0
   24.1730    7.4840   -5.7530 N   0  0  0  0  0  0  0  0  0  0  0  0
   23.4340    8.2760   -4.9640 C   0  0  0  0  0  0  0  0  0  0  0  0
   23.8470    8.6630   -3.6950 C   0  0  0  0  0  0  0  0  0  0  0  0
   23.0610    9.5260   -2.9420 N   0  0  0  0  0  0  0  0  0  0  0  0
   21.8610   10.0020   -3.4580 C   0  0  0  0  0  0  0  0  0  0  0  0
   21.4480    9.6150   -4.7260 C   0  0  0  0  0  0  0  0  0  0  0  0
   22.2420    8.7390   -5.4770 C   0  0  0  0  0  0  0  0  0  0  0  0
   20.2750   10.0840   -5.2370 O   0  0  0  0  0  0  0  0  0  0  0  0
   25.5346    6.0219   -7.4242 H   0  0  0  0  0  0  0  0  0  0  0  0
   26.0937   10.8476   -8.1495 H   0  0  0  0  0  0  0  0  0  0  0  0
   27.6976    9.9193  -10.1573 H   0  0  0  0  0  0  0  0  0  0  0  0
   25.2332   10.7430   -4.4050 H   0  0  0  0  0  0  0  0  0  0  0  0
   26.5474   10.5536   -5.6148 H   0  0  0  0  0  0  0  0  0  0  0  0
   25.5335   12.0363   -5.6148 H   0  0  0  0  0  0  0  0  0  0  0  0
   29.0536    6.8028  -11.7435 H   0  0  0  0  0  0  0  0  0  0  0  0
   31.5191   11.0622  -12.8883 H   0  0  0  0  0  0  0  0  0  0  0  0
   28.9169   11.6448  -13.3588 H   0  0  0  0  0  0  0  0  0  0  0  0
   26.4551    9.8041  -11.6168 H   0  0  0  0  0  0  0  0  0  0  0  0
   26.6378   10.6989  -13.1636 H   0  0  0  0  0  0  0  0  0  0  0  0
   26.6035    8.9029  -13.1636 H   0  0  0  0  0  0  0  0  0  0  0  0
   24.1287    6.4677   -5.5918 H   0  0  0  0  0  0  0  0  0  0  0  0
   24.7963    8.2860   -3.2867 H   0  0  0  0  0  0  0  0  0  0  0  0
   21.2386   10.6853   -2.8617 H   0  0  0  0  0  0  0  0  0  0  0  0
   21.9136    8.4204   -6.4773 H   0  0  0  0  0  0  0  0  0  0  0  0
   19.9829    9.8065   -6.1413 H   0  0  0  0  0  0  0  0  0  0  0  0
  1  7  1  0
  1  2  2  0
  1  5  1  0
  2  3  1  0
  2 19  1  0
  3  4  1  0
  4  8  2  0
  4  6  1  0
  6 10  1  0
  6  7  2  0
  8  9  1  0
  9 12  1  0
  9 10  2  0
 12 13  1  0
 13 17  1  0
 13 14  2  0
 14 15  1  0
 15 16  2  0
 16 17  1  0
 17 18  1  0
  5 11  1  0
 19 20  1  0
 20 25  1  0
 20 21  2  0
 21 22  1  0
 22 23  2  0
 23 24  1  0
 24 25  2  0
 24 26  1  0
  3 27  1  0
  7 28  1  0
 10 29  1  0
 11 30  1  1
 11 31  1  0
 11 32  1  0
 12 33  1  0
 15 34  1  0
 16 35  1  0
 18 36  1  1
 18 37  1  0
 18 38  1  0
 19 39  1  0
 21 40  1  0
 23 41  1  0
 25 42  1  0
 26 43  1  0
M  END
>  <Pose ID>  (117)
88

>  <Score>  (117)
-6.4506354331970215

>  <smiles>  (117)
COc1cc2cc(Nc3nccn3C)nc-2[nH]c1Nc1cncc(O)c1

$$$$

     RDKit          3D

 46 49  0  0  0  0  0  0  0  0999 V2000
   25.3070    9.2470   -7.0450 C   0  0  0  0  0  0  0  0  0  0  0  0
   25.3120    7.8660   -6.8610 C   0  0  0  0  0  0  0  0  0  0  0  0
   26.0400    7.0520   -7.7150 N   0  0  0  0  0  0  0  0  0  0  0  0
   26.7740    7.6180   -8.7560 C   0  0  0  0  0  0  0  0  0  0  0  0
   24.7060   10.1940   -6.3770 O   0  0  0  0  0  0  0  0  0  0  0  0
   26.7720    8.9950   -8.9380 C   0  0  0  0  0  0  0  0  0  0  0  0
   26.0400    9.8080   -8.0870 C   0  0  0  0  0  0  0  0  0  0  0  0
   27.5490    7.0440   -9.6950 N   0  0  0  0  0  0  0  0  0  0  0  0
   28.0580    8.0320  -10.5080 C   0  0  0  0  0  0  0  0  0  0  0  0
   27.4790    9.1750   -9.9140 C   0  0  0  0  0  0  0  0  0  0  0  0
   25.5800   10.9000   -5.5070 C   0  0  1  0  0  0  0  0  0  0  0  0
   28.8870    8.1140  -11.6000 N   0  0  0  0  0  0  0  0  0  0  0  0
   29.1800    9.3200  -12.1480 C   0  0  0  0  0  0  0  0  0  0  0  0
   30.4960    9.8170  -12.2790 N   0  0  0  0  0  0  0  0  0  0  0  0
   30.4250   11.0770  -12.8880 C   0  0  0  0  0  0  0  0  0  0  0  0
   29.0220   11.1910  -13.0650 C   0  0  0  0  0  0  0  0  0  0  0  0
   28.2850   10.1410  -12.6350 N   0  0  0  0  0  0  0  0  0  0  0  0
   26.8180   10.0100  -12.7370 C   0  0  1  0  0  0  0  0  0  0  0  0
   24.5790    7.2140   -5.5970 C   0  0  0  0  0  0  0  0  0  0  0  0
   23.2750    6.8830   -5.9420 C   0  0  0  0  0  0  0  0  0  0  0  0
   22.4430    6.2710   -5.0110 N   0  0  0  0  0  0  0  0  0  0  0  0
   22.9160    5.9900   -3.7360 C   0  0  0  0  0  0  0  0  0  0  0  0
   24.2240    6.3200   -3.3900 N   0  0  0  0  0  0  0  0  0  0  0  0
   25.0500    6.9300   -4.3210 C   0  0  0  0  0  0  0  0  0  0  0  0
   22.0150    5.3260   -2.7240 C   0  0  1  0  0  0  0  0  0  0  0  0
   22.4700    5.8020   -1.3220 C   0  0  0  0  0  0  0  0  0  0  0  0
   22.5900    6.9600   -1.0530 O   0  0  0  0  0  0  0  0  0  0  0  0
   22.6770    4.7400   -0.4810 N   0  0  0  0  0  0  0  0  0  0  0  0
   26.0385    6.0308   -7.5805 H   0  0  0  0  0  0  0  0  0  0  0  0
   26.0383   10.8980   -8.2352 H   0  0  0  0  0  0  0  0  0  0  0  0
   27.6584   10.1835  -10.3148 H   0  0  0  0  0  0  0  0  0  0  0  0
   25.3116   10.6832   -4.4625 H   0  0  0  0  0  0  0  0  0  0  0  0
   26.6169   10.5830   -5.6925 H   0  0  0  0  0  0  0  0  0  0  0  0
   25.4881   11.9803   -5.6925 H   0  0  0  0  0  0  0  0  0  0  0  0
   29.2881    7.2560  -12.0047 H   0  0  0  0  0  0  0  0  0  0  0  0
   31.2292   11.7789  -13.1536 H   0  0  0  0  0  0  0  0  0  0  0  0
   28.5617   12.0785  -13.5237 H   0  0  0  0  0  0  0  0  0  0  0  0
   26.3823    9.9711  -11.7277 H   0  0  0  0  0  0  0  0  0  0  0  0
   26.4095   10.8752  -13.2796 H   0  0  0  0  0  0  0  0  0  0  0  0
   26.5692    9.0861  -13.2796 H   0  0  0  0  0  0  0  0  0  0  0  0
   22.9003    7.1051   -6.9521 H   0  0  0  0  0  0  0  0  0  0  0  0
   26.0834    7.1905   -4.0484 H   0  0  0  0  0  0  0  0  0  0  0  0
   20.9697    5.6194   -2.9005 H   0  0  0  0  0  0  0  0  0  0  0  0
   22.0792    4.2308   -2.8039 H   0  0  0  0  0  0  0  0  0  0  0  0
   22.9836    4.9031    0.4887 H   0  0  0  0  0  0  0  0  0  0  0  0
   22.5260    3.7787   -0.8186 H   0  0  0  0  0  0  0  0  0  0  0  0
  1  7  1  0
  1  2  2  0
  1  5  1  0
  2  3  1  0
  2 19  1  0
  3  4  1  0
  4  8  2  0
  4  6  1  0
  6 10  1  0
  6  7  2  0
  8  9  1  0
  9 12  1  0
  9 10  2  0
 12 13  1  0
 13 17  1  0
 13 14  2  0
 14 15  1  0
 15 16  2  0
 16 17  1  0
 17 18  1  0
 19 20  2  0
 19 24  1  0
 20 21  1  0
 21 22  2  0
 22 23  1  0
 22 25  1  0
 23 24  2  0
 25 26  1  0
 26 27  2  0
 26 28  1  0
  5 11  1  0
  3 29  1  0
  7 30  1  0
 10 31  1  0
 11 32  1  1
 11 33  1  0
 11 34  1  0
 12 35  1  0
 15 36  1  0
 16 37  1  0
 18 38  1  1
 18 39  1  0
 18 40  1  0
 20 41  1  0
 24 42  1  0
 25 43  1  6
 25 44  1  0
 28 45  1  0
 28 46  1  0
M  END
>  <Pose ID>  (118)
17

>  <Score>  (118)
-6.406724452972412

>  <smiles>  (118)
COc1cc2cc(Nc3nccn3C)nc-2[nH]c1-c1cnc(CC(N)=O)nc1

$$$$

     RDKit          3D

 41 44  0  0  0  0  0  0  0  0999 V2000
   25.2010    9.2870   -7.0230 C   0  0  0  0  0  0  0  0  0  0  0  0
   25.0980    7.9100   -6.8470 C   0  0  0  0  0  0  0  0  0  0  0  0
   25.7910    7.0480   -7.6870 N   0  0  0  0  0  0  0  0  0  0  0  0
   26.5910    7.5610   -8.7040 C   0  0  0  0  0  0  0  0  0  0  0  0
   24.6540   10.2710   -6.3690 O   0  0  0  0  0  0  0  0  0  0  0  0
   26.6940    8.9340   -8.8800 C   0  0  0  0  0  0  0  0  0  0  0  0
   26.0010    9.7970   -8.0420 C   0  0  0  0  0  0  0  0  0  0  0  0
   27.3460    6.9370   -9.6260 N   0  0  0  0  0  0  0  0  0  0  0  0
   27.9490    7.8860  -10.4200 C   0  0  0  0  0  0  0  0  0  0  0  0
   27.4390    9.0660   -9.8340 C   0  0  0  0  0  0  0  0  0  0  0  0
   25.5530   10.9100   -5.4700 C   0  0  1  0  0  0  0  0  0  0  0  0
   28.8100    7.9120  -11.4910 N   0  0  0  0  0  0  0  0  0  0  0  0
   29.2030    9.0940  -12.0230 C   0  0  0  0  0  0  0  0  0  0  0  0
   30.5580    9.4950  -12.1150 N   0  0  0  0  0  0  0  0  0  0  0  0
   30.5930   10.7580  -12.7230 C   0  0  0  0  0  0  0  0  0  0  0  0
   29.2090   10.9740  -12.9340 C   0  0  0  0  0  0  0  0  0  0  0  0
   28.3840    9.9820  -12.5280 N   0  0  0  0  0  0  0  0  0  0  0  0
   26.9150    9.9580  -12.6710 C   0  0  1  0  0  0  0  0  0  0  0  0
   24.2660    7.6560   -5.7930 N   0  0  0  0  0  0  0  0  0  0  0  0
   24.3560    6.5700   -4.9660 C   0  0  0  0  0  0  0  0  0  0  0  0
   23.3880    6.7320   -4.0700 C   0  0  0  0  0  0  0  0  0  0  0  0
   23.2390    8.4290   -5.3490 C   0  0  0  0  0  0  0  0  0  0  0  0
   22.6310    7.9150   -4.3270 N   0  0  0  0  0  0  0  0  0  0  0  0
   23.1230    5.7860   -2.9250 C   0  0  1  0  0  0  0  0  0  0  0  0
   25.7130    6.0292   -7.5574 H   0  0  0  0  0  0  0  0  0  0  0  0
   26.0840   10.8847   -8.1832 H   0  0  0  0  0  0  0  0  0  0  0  0
   27.7034   10.0605  -10.2226 H   0  0  0  0  0  0  0  0  0  0  0  0
   25.2506   10.6951   -4.4345 H   0  0  0  0  0  0  0  0  0  0  0  0
   26.5720   10.5324   -5.6403 H   0  0  0  0  0  0  0  0  0  0  0  0
   25.5314   11.9965   -5.6403 H   0  0  0  0  0  0  0  0  0  0  0  0
   29.1579    7.0288  -11.8908 H   0  0  0  0  0  0  0  0  0  0  0  0
   31.4524   11.3998  -12.9671 H   0  0  0  0  0  0  0  0  0  0  0  0
   28.8277   11.8943  -13.4006 H   0  0  0  0  0  0  0  0  0  0  0  0
   26.4497    9.9504  -11.6743 H   0  0  0  0  0  0  0  0  0  0  0  0
   26.5857   10.8509  -13.2226 H   0  0  0  0  0  0  0  0  0  0  0  0
   26.6150    9.0548  -13.2226 H   0  0  0  0  0  0  0  0  0  0  0  0
   25.0755    5.7403   -5.0291 H   0  0  0  0  0  0  0  0  0  0  0  0
   22.9551    9.3874   -5.8082 H   0  0  0  0  0  0  0  0  0  0  0  0
   23.2709    6.3140   -1.9714 H   0  0  0  0  0  0  0  0  0  0  0  0
   22.0876    5.4194   -2.9844 H   0  0  0  0  0  0  0  0  0  0  0  0
   23.8173    4.9349   -2.9844 H   0  0  0  0  0  0  0  0  0  0  0  0
  1  7  1  0
  1  2  2  0
  1  5  1  0
  2  3  1  0
  2 19  1  0
  3  4  1  0
  4  8  2  0
  4  6  1  0
  6 10  1  0
  6  7  2  0
  8  9  1  0
  9 12  1  0
  9 10  2  0
 12 13  1  0
 13 17  1  0
 13 14  2  0
 14 15  1  0
 15 16  2  0
 16 17  1  0
 17 18  1  0
 19 22  1  0
 19 20  1  0
 20 21  2  0
 21 23  1  0
 21 24  1  0
 22 23  2  0
  5 11  1  0
  3 25  1  0
  7 26  1  0
 10 27  1  0
 11 28  1  1
 11 29  1  0
 11 30  1  0
 12 31  1  0
 15 32  1  0
 16 33  1  0
 18 34  1  1
 18 35  1  0
 18 36  1  0
 20 37  1  0
 22 38  1  0
 24 39  1  1
 24 40  1  0
 24 41  1  0
M  END
>  <Pose ID>  (119)
123

>  <Score>  (119)
-6.372710704803467

>  <smiles>  (119)
COc1cc2cc(Nc3nccn3C)nc-2[nH]c1-n1cnc(C)c1

$$$$

     RDKit          3D

 36 38  0  0  0  0  0  0  0  0999 V2000
   25.4270    9.0780   -7.1010 C   0  0  0  0  0  0  0  0  0  0  0  0
   25.4720    7.6930   -6.9640 C   0  0  0  0  0  0  0  0  0  0  0  0
   26.2220    6.9290   -7.8490 N   0  0  0  0  0  0  0  0  0  0  0  0
   26.9300    7.5520   -8.8730 C   0  0  0  0  0  0  0  0  0  0  0  0
   24.8040    9.9830   -6.3980 O   0  0  0  0  0  0  0  0  0  0  0  0
   26.8870    8.9310   -9.0090 C   0  0  0  0  0  0  0  0  0  0  0  0
   26.1370    9.6950   -8.1260 C   0  0  0  0  0  0  0  0  0  0  0  0
   27.7160    7.0330   -9.8360 N   0  0  0  0  0  0  0  0  0  0  0  0
   28.1910    8.0630  -10.6170 C   0  0  0  0  0  0  0  0  0  0  0  0
   27.5830    9.1660   -9.9810 C   0  0  0  0  0  0  0  0  0  0  0  0
   25.6620   10.6850   -5.5070 C   0  0  1  0  0  0  0  0  0  0  0  0
   29.0080    8.2060  -11.7130 N   0  0  0  0  0  0  0  0  0  0  0  0
   29.2620    9.4370  -12.2200 C   0  0  0  0  0  0  0  0  0  0  0  0
   30.5640    9.9780  -12.3400 N   0  0  0  0  0  0  0  0  0  0  0  0
   30.4500   11.2540  -12.9080 C   0  0  0  0  0  0  0  0  0  0  0  0
   29.0440   11.3310  -13.0730 C   0  0  0  0  0  0  0  0  0  0  0  0
   28.3400   10.2490  -12.6730 N   0  0  0  0  0  0  0  0  0  0  0  0
   26.8780   10.0770  -12.7730 C   0  0  1  0  0  0  0  0  0  0  0  0
   24.8730    6.8610   -6.0490 N   0  0  0  0  0  0  0  0  0  0  0  0
   23.4860    7.0470   -5.5400 C   0  0  1  0  0  0  0  0  0  0  0  0
   26.2542    5.9045   -7.7479 H   0  0  0  0  0  0  0  0  0  0  0  0
   26.1039   10.7889   -8.2366 H   0  0  0  0  0  0  0  0  0  0  0  0
   27.7309   10.1929  -10.3466 H   0  0  0  0  0  0  0  0  0  0  0  0
   25.3804   10.4546   -4.4689 H   0  0  0  0  0  0  0  0  0  0  0  0
   26.7034   10.3766   -5.6815 H   0  0  0  0  0  0  0  0  0  0  0  0
   25.5659   11.7668   -5.6815 H   0  0  0  0  0  0  0  0  0  0  0  0
   29.4290    7.3742  -12.1509 H   0  0  0  0  0  0  0  0  0  0  0  0
   31.2307   11.9883  -13.1558 H   0  0  0  0  0  0  0  0  0  0  0  0
   28.5552   12.2186  -13.5011 H   0  0  0  0  0  0  0  0  0  0  0  0
   26.4449   10.0260  -11.7631 H   0  0  0  0  0  0  0  0  0  0  0  0
   26.4446   10.9304  -13.3152 H   0  0  0  0  0  0  0  0  0  0  0  0
   26.6545    9.1464  -13.3152 H   0  0  0  0  0  0  0  0  0  0  0  0
   25.4158    6.0609   -5.6940 H   0  0  0  0  0  0  0  0  0  0  0  0
   23.4958    7.0457   -4.4400 H   0  0  0  0  0  0  0  0  0  0  0  0
   23.0882    8.0065   -5.9020 H   0  0  0  0  0  0  0  0  0  0  0  0
   22.8494    6.2262   -5.9020 H   0  0  0  0  0  0  0  0  0  0  0  0
  1  7  1  0
  1  2  2  0
  1  5  1  0
  2  3  1  0
  2 19  1  0
  3  4  1  0
  4  8  2  0
  4  6  1  0
  6 10  1  0
  6  7  2  0
  8  9  1  0
  9 12  1  0
  9 10  2  0
 12 13  1  0
 13 17  1  0
 13 14  2  0
 14 15  1  0
 15 16  2  0
 16 17  1  0
 17 18  1  0
 19 20  1  0
  5 11  1  0
  3 21  1  0
  7 22  1  0
 10 23  1  0
 11 24  1  1
 11 25  1  0
 11 26  1  0
 12 27  1  0
 15 28  1  0
 16 29  1  0
 18 30  1  1
 18 31  1  0
 18 32  1  0
 19 33  1  0
 20 34  1  1
 20 35  1  0
 20 36  1  0
M  END
>  <Pose ID>  (120)
63

>  <Score>  (120)
-6.3569793701171875

>  <smiles>  (120)
CNc1[nH]c2nc(Nc3nccn3C)cc-2cc1OC

$$$$

     RDKit          3D

 38 41  0  0  0  0  0  0  0  0999 V2000
   25.2410    9.4030   -6.9530 C   0  0  0  0  0  0  0  0  0  0  0  0
   25.1240    8.0320   -6.7470 C   0  0  0  0  0  0  0  0  0  0  0  0
   25.7930    7.1430   -7.5770 N   0  0  0  0  0  0  0  0  0  0  0  0
   26.5860    7.6270   -8.6150 C   0  0  0  0  0  0  0  0  0  0  0  0
   24.7160   10.4100   -6.3100 O   0  0  0  0  0  0  0  0  0  0  0  0
   26.7060    8.9940   -8.8170 C   0  0  0  0  0  0  0  0  0  0  0  0
   26.0370    9.8820   -7.9900 C   0  0  0  0  0  0  0  0  0  0  0  0
   27.3220    6.9730   -9.5320 N   0  0  0  0  0  0  0  0  0  0  0  0
   27.9270    7.9000  -10.3520 C   0  0  0  0  0  0  0  0  0  0  0  0
   27.4410    9.0960   -9.7840 C   0  0  0  0  0  0  0  0  0  0  0  0
   25.6360   11.0510   -5.4330 C   0  0  1  0  0  0  0  0  0  0  0  0
   28.7750    7.8910  -11.4350 N   0  0  0  0  0  0  0  0  0  0  0  0
   29.1790    9.0560  -11.9950 C   0  0  0  0  0  0  0  0  0  0  0  0
   30.5370    9.4370  -12.1120 N   0  0  0  0  0  0  0  0  0  0  0  0
   30.5810   10.6870  -12.7450 C   0  0  0  0  0  0  0  0  0  0  0  0
   29.1960   10.9180  -12.9440 C   0  0  0  0  0  0  0  0  0  0  0  0
   28.3640    9.9450  -12.5080 N   0  0  0  0  0  0  0  0  0  0  0  0
   26.8930    9.9400  -12.6330 C   0  0  1  0  0  0  0  0  0  0  0  0
   24.3460    7.5600   -5.7260 N   0  0  0  0  0  0  0  0  0  0  0  0
   24.3700    6.4530   -4.9250 C   0  0  0  0  0  0  0  0  0  0  0  0
   23.4140    6.5090   -4.0900 C   0  0  0  0  0  0  0  0  0  0  0  0
   23.2670    8.2880   -5.2760 C   0  0  0  0  0  0  0  0  0  0  0  0
   22.6680    7.6230   -4.2870 N   0  0  0  0  0  0  0  0  0  0  0  0
   25.7033    6.1281   -7.4258 H   0  0  0  0  0  0  0  0  0  0  0  0
   26.1348   10.9655   -8.1528 H   0  0  0  0  0  0  0  0  0  0  0  0
   27.7136   10.0788  -10.1961 H   0  0  0  0  0  0  0  0  0  0  0  0
   25.3487   10.8509   -4.3902 H   0  0  0  0  0  0  0  0  0  0  0  0
   26.6485   10.6618   -5.6156 H   0  0  0  0  0  0  0  0  0  0  0  0
   25.6217   12.1357   -5.6156 H   0  0  0  0  0  0  0  0  0  0  0  0
   29.1040    6.9948  -11.8215 H   0  0  0  0  0  0  0  0  0  0  0  0
   31.4458   11.3122  -13.0120 H   0  0  0  0  0  0  0  0  0  0  0  0
   28.8209   11.8338  -13.4242 H   0  0  0  0  0  0  0  0  0  0  0  0
   26.4398    9.9385  -11.6307 H   0  0  0  0  0  0  0  0  0  0  0  0
   26.5685   10.8370  -13.1807 H   0  0  0  0  0  0  0  0  0  0  0  0
   26.5746    9.0408  -13.1807 H   0  0  0  0  0  0  0  0  0  0  0  0
   25.1051    5.6375   -4.9929 H   0  0  0  0  0  0  0  0  0  0  0  0
   23.2185    5.7556   -3.3128 H   0  0  0  0  0  0  0  0  0  0  0  0
   22.9491    9.2645   -5.6703 H   0  0  0  0  0  0  0  0  0  0  0  0
  1  7  1  0
  1  2  2  0
  1  5  1  0
  2  3  1  0
  2 19  1  0
  3  4  1  0
  4  8  2  0
  4  6  1  0
  6 10  1  0
  6  7  2  0
  8  9  1  0
  9 12  1  0
  9 10  2  0
 12 13  1  0
 13 17  1  0
 13 14  2  0
 14 15  1  0
 15 16  2  0
 16 17  1  0
 17 18  1  0
 19 22  1  0
 19 20  1  0
 20 21  2  0
 21 23  1  0
 22 23  2  0
  5 11  1  0
  3 24  1  0
  7 25  1  0
 10 26  1  0
 11 27  1  1
 11 28  1  0
 11 29  1  0
 12 30  1  0
 15 31  1  0
 16 32  1  0
 18 33  1  1
 18 34  1  0
 18 35  1  0
 20 36  1  0
 21 37  1  0
 22 38  1  0
M  END
>  <Pose ID>  (121)
108

>  <Score>  (121)
-6.32108736038208

>  <smiles>  (121)
COc1cc2cc(Nc3nccn3C)nc-2[nH]c1-n1ccnc1

$$$$

     RDKit          3D

 46 49  0  0  0  0  0  0  0  0999 V2000
   25.4800    9.6840   -6.9210 C   0  0  0  0  0  0  0  0  0  0  0  0
   25.4650    8.3290   -6.6040 C   0  0  0  0  0  0  0  0  0  0  0  0
   26.1720    7.4220   -7.3850 N   0  0  0  0  0  0  0  0  0  0  0  0
   26.8990    7.8760   -8.4860 C   0  0  0  0  0  0  0  0  0  0  0  0
   24.9010   10.6990   -6.3390 O   0  0  0  0  0  0  0  0  0  0  0  0
   26.9110    9.2280   -8.7980 C   0  0  0  0  0  0  0  0  0  0  0  0
   26.2050   10.1300   -8.0200 C   0  0  0  0  0  0  0  0  0  0  0  0
   27.6500    7.2030   -9.3740 N   0  0  0  0  0  0  0  0  0  0  0  0
   28.1630    8.1000  -10.2840 C   0  0  0  0  0  0  0  0  0  0  0  0
   27.6070    9.3030   -9.7950 C   0  0  0  0  0  0  0  0  0  0  0  0
   25.7970   11.4720   -5.5500 C   0  0  1  0  0  0  0  0  0  0  0  0
   28.9750    8.0640  -11.3930 N   0  0  0  0  0  0  0  0  0  0  0  0
   29.2780    9.2060  -12.0560 C   0  0  0  0  0  0  0  0  0  0  0  0
   30.6000    9.6700  -12.2520 N   0  0  0  0  0  0  0  0  0  0  0  0
   30.5360   10.8650  -12.9800 C   0  0  0  0  0  0  0  0  0  0  0  0
   29.1330   10.9820  -13.1480 C   0  0  0  0  0  0  0  0  0  0  0  0
   28.3860    9.9920  -12.6070 N   0  0  0  0  0  0  0  0  0  0  0  0
   26.9190    9.8740  -12.6800 C   0  0  1  0  0  0  0  0  0  0  0  0
   24.7520    7.8840   -5.5170 N   0  0  0  0  0  0  0  0  0  0  0  0
   24.4270    6.4640   -5.4070 C   0  0  1  0  0  0  0  0  0  0  0  0
   23.3690    6.1820   -4.3100 C   0  0  0  0  0  0  0  0  0  0  0  0
   22.0480    5.9670   -4.6840 N   0  0  0  0  0  0  0  0  0  0  0  0
   21.0850    5.7110   -3.7150 C   0  0  0  0  0  0  0  0  0  0  0  0
   23.7260    6.1450   -2.9670 C   0  0  0  0  0  0  0  0  0  0  0  0
   22.7620    5.8900   -1.9990 C   0  0  0  0  0  0  0  0  0  0  0  0
   21.4610    5.6910   -2.3380 C   0  0  0  0  0  0  0  0  0  0  0  0
   25.0210    6.3580   -2.6000 O   0  0  0  0  0  0  0  0  0  0  0  0
   26.1592    6.4188   -7.1518 H   0  0  0  0  0  0  0  0  0  0  0  0
   26.2179   11.2007   -8.2719 H   0  0  0  0  0  0  0  0  0  0  0  0
   27.7944   10.2658  -10.2929 H   0  0  0  0  0  0  0  0  0  0  0  0
   25.5924   11.2955   -4.4837 H   0  0  0  0  0  0  0  0  0  0  0  0
   26.8325   11.1791   -5.7780 H   0  0  0  0  0  0  0  0  0  0  0  0
   25.6591   12.5392   -5.7780 H   0  0  0  0  0  0  0  0  0  0  0  0
   29.3547    7.1646  -11.7213 H   0  0  0  0  0  0  0  0  0  0  0  0
   31.3453   11.5258  -13.3241 H   0  0  0  0  0  0  0  0  0  0  0  0
   28.6789   11.8272  -13.6860 H   0  0  0  0  0  0  0  0  0  0  0  0
   26.5028    9.8405  -11.6623 H   0  0  0  0  0  0  0  0  0  0  0  0
   26.5076   10.7420  -13.2161 H   0  0  0  0  0  0  0  0  0  0  0  0
   26.6516    8.9514  -13.2161 H   0  0  0  0  0  0  0  0  0  0  0  0
   24.4497    8.5449   -4.7871 H   0  0  0  0  0  0  0  0  0  0  0  0
   24.0346    6.1157   -6.3738 H   0  0  0  0  0  0  0  0  0  0  0  0
   25.3478    5.9303   -5.1292 H   0  0  0  0  0  0  0  0  0  0  0  0
   20.0409    5.5252   -4.0070 H   0  0  0  0  0  0  0  0  0  0  0  0
   23.0571    5.8485   -0.9401 H   0  0  0  0  0  0  0  0  0  0  0  0
   20.7048    5.5161   -1.5586 H   0  0  0  0  0  0  0  0  0  0  0  0
   25.2752    6.3316   -1.6435 H   0  0  0  0  0  0  0  0  0  0  0  0
  1  7  1  0
  1  2  2  0
  1  5  1  0
  2  3  1  0
  2 19  1  0
  3  4  1  0
  4  8  2  0
  4  6  1  0
  6 10  1  0
  6  7  2  0
  8  9  1  0
  9 12  1  0
  9 10  2  0
 12 13  1  0
 13 17  1  0
 13 14  2  0
 14 15  1  0
 15 16  2  0
 16 17  1  0
 17 18  1  0
  5 11  1  0
 19 20  1  0
 20 21  1  0
 21 22  2  0
 21 24  1  0
 22 23  1  0
 23 26  2  0
 24 27  1  0
 24 25  2  0
 25 26  1  0
  3 28  1  0
  7 29  1  0
 10 30  1  0
 11 31  1  1
 11 32  1  0
 11 33  1  0
 12 34  1  0
 15 35  1  0
 16 36  1  0
 18 37  1  1
 18 38  1  0
 18 39  1  0
 19 40  1  0
 20 41  1  6
 20 42  1  0
 23 43  1  0
 25 44  1  0
 26 45  1  0
 27 46  1  0
M  END
>  <Pose ID>  (122)
105

>  <Score>  (122)
-6.314046382904053

>  <smiles>  (122)
COc1cc2cc(Nc3nccn3C)nc-2[nH]c1NCc1ncccc1O

$$$$

     RDKit          3D

 48 51  0  0  0  0  0  0  0  0999 V2000
   25.3520    9.4760   -6.7770 C   0  0  0  0  0  0  0  0  0  0  0  0
   25.1450    8.1120   -6.5820 C   0  0  0  0  0  0  0  0  0  0  0  0
   25.7180    7.1890   -7.4480 N   0  0  0  0  0  0  0  0  0  0  0  0
   26.5080    7.6290   -8.5080 C   0  0  0  0  0  0  0  0  0  0  0  0
   24.9230   10.5060   -6.1050 O   0  0  0  0  0  0  0  0  0  0  0  0
   26.7200    8.9850   -8.6980 C   0  0  0  0  0  0  0  0  0  0  0  0
   26.1450    9.9090   -7.8360 C   0  0  0  0  0  0  0  0  0  0  0  0
   27.1620    6.9360   -9.4560 N   0  0  0  0  0  0  0  0  0  0  0  0
   27.8040    7.8290  -10.2870 C   0  0  0  0  0  0  0  0  0  0  0  0
   27.4260    9.0510   -9.6880 C   0  0  0  0  0  0  0  0  0  0  0  0
   25.9160   11.0690   -5.2530 C   0  0  1  0  0  0  0  0  0  0  0  0
   28.6090    7.7780  -11.3980 N   0  0  0  0  0  0  0  0  0  0  0  0
   29.0780    8.9180  -11.9590 C   0  0  0  0  0  0  0  0  0  0  0  0
   30.4540    9.2020  -12.1210 N   0  0  0  0  0  0  0  0  0  0  0  0
   30.5680   10.4530  -12.7390 C   0  0  0  0  0  0  0  0  0  0  0  0
   29.1970   10.7880  -12.8890 C   0  0  0  0  0  0  0  0  0  0  0  0
   28.3130    9.8710  -12.4340 N   0  0  0  0  0  0  0  0  0  0  0  0
   26.8420    9.9720  -12.5050 C   0  0  1  0  0  0  0  0  0  0  0  0
   26.1980   10.4400  -13.8120 C   0  0  1  0  0  0  0  0  0  0  0  0
   24.3030    7.6450   -5.4500 C   0  0  0  0  0  0  0  0  0  0  0  0
   23.7250    6.5620   -5.4820 O   0  0  0  0  0  0  0  0  0  0  0  0
   24.1160    8.4460   -4.2670 N   0  0  0  0  0  0  0  0  0  0  0  0
   23.4480    8.0890   -3.1820 C   0  0  0  0  0  0  0  0  0  0  0  0
   23.1010    6.7680   -2.9190 C   0  0  0  0  0  0  0  0  0  0  0  0
   22.4420    6.4460   -1.7380 N   0  0  0  0  0  0  0  0  0  0  0  0
   22.1320    7.4430   -0.8220 C   0  0  0  0  0  0  0  0  0  0  0  0
   22.4780    8.7640   -1.0850 C   0  0  0  0  0  0  0  0  0  0  0  0
   23.1350    9.0810   -2.2790 C   0  0  0  0  0  0  0  0  0  0  0  0
   23.4670   10.3760   -2.5490 O   0  0  0  0  0  0  0  0  0  0  0  0
   25.5591    6.1812   -7.3067 H   0  0  0  0  0  0  0  0  0  0  0  0
   26.3163   10.9846   -7.9900 H   0  0  0  0  0  0  0  0  0  0  0  0
   27.7543   10.0179  -10.0970 H   0  0  0  0  0  0  0  0  0  0  0  0
   25.6320   10.9080   -4.2026 H   0  0  0  0  0  0  0  0  0  0  0  0
   26.8844   10.5856   -5.4492 H   0  0  0  0  0  0  0  0  0  0  0  0
   25.9985   12.1482   -5.4492 H   0  0  0  0  0  0  0  0  0  0  0  0
   28.8580    6.8664  -11.8077 H   0  0  0  0  0  0  0  0  0  0  0  0
   31.4671   11.0174  -13.0272 H   0  0  0  0  0  0  0  0  0  0  0  0
   28.8735   11.7345  -13.3468 H   0  0  0  0  0  0  0  0  0  0  0  0
   26.4382    8.9727  -12.2852 H   0  0  0  0  0  0  0  0  0  0  0  0
   26.5947   10.7674  -11.7866 H   0  0  0  0  0  0  0  0  0  0  0  0
   25.3272   11.0728  -13.5857 H   0  0  0  0  0  0  0  0  0  0  0  0
   26.9299   11.0183  -14.3949 H   0  0  0  0  0  0  0  0  0  0  0  0
   25.8740    9.5652  -14.3949 H   0  0  0  0  0  0  0  0  0  0  0  0
   24.5420    9.3838   -4.2658 H   0  0  0  0  0  0  0  0  0  0  0  0
   23.3477    5.9790   -3.6446 H   0  0  0  0  0  0  0  0  0  0  0  0
   21.6120    7.1873    0.1130 H   0  0  0  0  0  0  0  0  0  0  0  0
   22.2368    9.5545   -0.3591 H   0  0  0  0  0  0  0  0  0  0  0  0
   23.2427   11.0900   -1.9009 H   0  0  0  0  0  0  0  0  0  0  0  0
  1  7  1  0
  1  2  2  0
  1  5  1  0
  2  3  1  0
  2 20  1  0
  3  4  1  0
  4  8  2  0
  4  6  1  0
  6 10  1  0
  6  7  2  0
  8  9  1  0
  9 12  1  0
  9 10  2  0
 12 13  1  0
 13 17  1  0
 13 14  2  0
 14 15  1  0
 15 16  2  0
 16 17  1  0
 17 18  1  0
 18 19  1  0
 20 21  2  0
 20 22  1  0
 22 23  1  0
 23 24  2  0
 23 28  1  0
 24 25  1  0
 25 26  2  0
 26 27  1  0
 27 28  2  0
 28 29  1  0
  5 11  1  0
  3 30  1  0
  7 31  1  0
 10 32  1  0
 11 33  1  1
 11 34  1  0
 11 35  1  0
 12 36  1  0
 15 37  1  0
 16 38  1  0
 18 39  1  1
 18 40  1  0
 19 41  1  1
 19 42  1  0
 19 43  1  0
 22 44  1  0
 24 45  1  0
 26 46  1  0
 27 47  1  0
 29 48  1  0
M  END
>  <Pose ID>  (123)
9

>  <Score>  (123)
-6.309831142425537

>  <smiles>  (123)
CCn1ccnc1Nc1cc2cc(OC)c(C(=O)Nc3cnccc3O)[nH]c-2n1

$$$$

     RDKit          3D

 39 42  0  0  0  0  0  0  0  0999 V2000
   25.2410    9.4030   -6.9530 C   0  0  0  0  0  0  0  0  0  0  0  0
   25.1240    8.0320   -6.7470 C   0  0  0  0  0  0  0  0  0  0  0  0
   25.7930    7.1430   -7.5770 N   0  0  0  0  0  0  0  0  0  0  0  0
   26.5860    7.6270   -8.6150 C   0  0  0  0  0  0  0  0  0  0  0  0
   24.7160   10.4100   -6.3100 O   0  0  0  0  0  0  0  0  0  0  0  0
   26.7060    8.9940   -8.8170 C   0  0  0  0  0  0  0  0  0  0  0  0
   26.0370    9.8820   -7.9900 C   0  0  0  0  0  0  0  0  0  0  0  0
   27.3220    6.9730   -9.5320 N   0  0  0  0  0  0  0  0  0  0  0  0
   27.9270    7.9000  -10.3520 C   0  0  0  0  0  0  0  0  0  0  0  0
   27.4410    9.0960   -9.7840 C   0  0  0  0  0  0  0  0  0  0  0  0
   25.6360   11.0510   -5.4330 C   0  0  1  0  0  0  0  0  0  0  0  0
   28.7750    7.8910  -11.4350 N   0  0  0  0  0  0  0  0  0  0  0  0
   29.1790    9.0560  -11.9950 C   0  0  0  0  0  0  0  0  0  0  0  0
   30.5370    9.4370  -12.1120 N   0  0  0  0  0  0  0  0  0  0  0  0
   30.5810   10.6870  -12.7450 C   0  0  0  0  0  0  0  0  0  0  0  0
   29.1960   10.9180  -12.9440 C   0  0  0  0  0  0  0  0  0  0  0  0
   28.3640    9.9450  -12.5080 N   0  0  0  0  0  0  0  0  0  0  0  0
   26.8930    9.9400  -12.6330 C   0  0  1  0  0  0  0  0  0  0  0  0
   24.3460    7.5600   -5.7260 N   0  0  0  0  0  0  0  0  0  0  0  0
   24.3700    6.4530   -4.9250 C   0  0  0  0  0  0  0  0  0  0  0  0
   23.4140    6.5090   -4.0900 C   0  0  0  0  0  0  0  0  0  0  0  0
   23.2670    8.2880   -5.2760 C   0  0  0  0  0  0  0  0  0  0  0  0
   22.7510    7.5020   -4.2750 C   0  0  0  0  0  0  0  0  0  0  0  0
   25.7033    6.1281   -7.4258 H   0  0  0  0  0  0  0  0  0  0  0  0
   26.1348   10.9655   -8.1528 H   0  0  0  0  0  0  0  0  0  0  0  0
   27.7136   10.0788  -10.1961 H   0  0  0  0  0  0  0  0  0  0  0  0
   25.3487   10.8509   -4.3902 H   0  0  0  0  0  0  0  0  0  0  0  0
   26.6485   10.6618   -5.6156 H   0  0  0  0  0  0  0  0  0  0  0  0
   25.6217   12.1357   -5.6156 H   0  0  0  0  0  0  0  0  0  0  0  0
   29.1040    6.9948  -11.8215 H   0  0  0  0  0  0  0  0  0  0  0  0
   31.4458   11.3122  -13.0120 H   0  0  0  0  0  0  0  0  0  0  0  0
   28.8209   11.8338  -13.4242 H   0  0  0  0  0  0  0  0  0  0  0  0
   26.4398    9.9385  -11.6307 H   0  0  0  0  0  0  0  0  0  0  0  0
   26.5685   10.8370  -13.1807 H   0  0  0  0  0  0  0  0  0  0  0  0
   26.5746    9.0408  -13.1807 H   0  0  0  0  0  0  0  0  0  0  0  0
   25.1051    5.6375   -4.9929 H   0  0  0  0  0  0  0  0  0  0  0  0
   23.2177    5.7595   -3.3092 H   0  0  0  0  0  0  0  0  0  0  0  0
   22.9056    9.2639   -5.6325 H   0  0  0  0  0  0  0  0  0  0  0  0
   21.8409    7.7477   -3.7082 H   0  0  0  0  0  0  0  0  0  0  0  0
  1  7  1  0
  1  2  2  0
  1  5  1  0
  2  3  1  0
  2 19  1  0
  3  4  1  0
  4  8  2  0
  4  6  1  0
  6 10  1  0
  6  7  2  0
  8  9  1  0
  9 12  1  0
  9 10  2  0
 12 13  1  0
 13 17  1  0
 13 14  2  0
 14 15  1  0
 15 16  2  0
 16 17  1  0
 17 18  1  0
 19 22  1  0
 19 20  1  0
 20 21  2  0
 21 23  1  0
 22 23  2  0
  5 11  1  0
  3 24  1  0
  7 25  1  0
 10 26  1  0
 11 27  1  1
 11 28  1  0
 11 29  1  0
 12 30  1  0
 15 31  1  0
 16 32  1  0
 18 33  1  1
 18 34  1  0
 18 35  1  0
 20 36  1  0
 21 37  1  0
 22 38  1  0
 23 39  1  0
M  END
>  <Pose ID>  (124)
107

>  <Score>  (124)
-6.307824611663818

>  <smiles>  (124)
COc1cc2cc(Nc3nccn3C)nc-2[nH]c1-n1cccc1

$$$$

     RDKit          3D

 53 57  0  0  0  0  0  0  0  0999 V2000
   25.2520    9.2030   -6.9590 C   0  0  0  0  0  0  0  0  0  0  0  0
   25.2270    7.8200   -6.7960 C   0  0  0  0  0  0  0  0  0  0  0  0
   25.9320    7.0030   -7.6720 N   0  0  0  0  0  0  0  0  0  0  0  0
   26.6610    7.5690   -8.7150 C   0  0  0  0  0  0  0  0  0  0  0  0
   24.6840   10.1520   -6.2720 O   0  0  0  0  0  0  0  0  0  0  0  0
   26.6880    8.9470   -8.8770 C   0  0  0  0  0  0  0  0  0  0  0  0
   25.9860    9.7640   -8.0030 C   0  0  0  0  0  0  0  0  0  0  0  0
   27.4110    6.9930   -9.6720 N   0  0  0  0  0  0  0  0  0  0  0  0
   27.9320    7.9800  -10.4750 C   0  0  0  0  0  0  0  0  0  0  0  0
   27.3850    9.1250   -9.8580 C   0  0  0  0  0  0  0  0  0  0  0  0
   25.5830   10.8260   -5.4000 C   0  0  1  0  0  0  0  0  0  0  0  0
   28.7450    8.0620  -11.5810 N   0  0  0  0  0  0  0  0  0  0  0  0
   29.0590    9.2690  -12.1150 C   0  0  0  0  0  0  0  0  0  0  0  0
   30.3860    9.7400  -12.2540 N   0  0  0  0  0  0  0  0  0  0  0  0
   30.3320   11.0080  -12.8470 C   0  0  0  0  0  0  0  0  0  0  0  0
   28.9300   11.1560  -13.0010 C   0  0  0  0  0  0  0  0  0  0  0  0
   28.1750   10.1180  -12.5760 N   0  0  0  0  0  0  0  0  0  0  0  0
   26.7040   10.0210  -12.6620 C   0  0  1  0  0  0  0  0  0  0  0  0
   26.0130   10.4250  -13.9640 C   0  0  1  0  0  0  0  0  0  0  0  0
   24.4540    7.5140   -5.7120 N   0  0  0  0  0  0  0  0  0  0  0  0
   24.6340    6.4270   -4.9030 C   0  0  0  0  0  0  0  0  0  0  0  0
   23.6960    6.5300   -3.9650 C   0  0  0  0  0  0  0  0  0  0  0  0
   23.6240    5.4070   -2.8780 N   0  0  0  0  0  0  0  0  0  0  0  0
   23.4090    8.2290   -5.2160 C   0  0  0  0  0  0  0  0  0  0  0  0
   22.8700    7.6740   -4.1770 N   0  0  0  0  0  0  0  0  0  0  0  0
   22.2370    5.1210   -2.8340 C   0  0  2  0  0  0  0  0  0  0  0  0
   22.2320    3.5230   -2.5970 C   0  0  1  0  0  0  0  0  0  0  0  0
   21.0940    3.4920   -3.7070 C   0  0  1  0  0  0  0  0  0  0  0  0
   21.4780    4.8920   -4.0550 C   0  0  1  0  0  0  0  0  0  0  0  0
   25.9153    5.9804   -7.5500 H   0  0  0  0  0  0  0  0  0  0  0  0
   26.0085   10.8560   -8.1339 H   0  0  0  0  0  0  0  0  0  0  0  0
   27.5804   10.1351  -10.2473 H   0  0  0  0  0  0  0  0  0  0  0  0
   25.3060   10.6183   -4.3559 H   0  0  0  0  0  0  0  0  0  0  0  0
   26.6079   10.4719   -5.5848 H   0  0  0  0  0  0  0  0  0  0  0  0
   25.5304   11.9091   -5.5848 H   0  0  0  0  0  0  0  0  0  0  0  0
   29.1180    7.2015  -12.0068 H   0  0  0  0  0  0  0  0  0  0  0  0
   31.1473   11.6952  -13.1171 H   0  0  0  0  0  0  0  0  0  0  0  0
   28.4837   12.0606  -13.4397 H   0  0  0  0  0  0  0  0  0  0  0  0
   26.4375    8.9717  -12.4670 H   0  0  0  0  0  0  0  0  0  0  0  0
   26.3461   10.7609  -11.9310 H   0  0  0  0  0  0  0  0  0  0  0  0
   25.0845   10.9678  -13.7332 H   0  0  0  0  0  0  0  0  0  0  0  0
   26.6819   11.0743  -14.5479 H   0  0  0  0  0  0  0  0  0  0  0  0
   25.7753    9.5236  -14.5479 H   0  0  0  0  0  0  0  0  0  0  0  0
   25.3920    5.6364   -5.0055 H   0  0  0  0  0  0  0  0  0  0  0  0
   24.3892    4.9838   -2.3336 H   0  0  0  0  0  0  0  0  0  0  0  0
   23.0589    9.1770   -5.6505 H   0  0  0  0  0  0  0  0  0  0  0  0
   21.8444    5.9370   -2.2094 H   0  0  0  0  0  0  0  0  0  0  0  0
   23.1646    3.0076   -2.8700 H   0  0  0  0  0  0  0  0  0  0  0  0
   22.1091    3.0674   -1.6034 H   0  0  0  0  0  0  0  0  0  0  0  0
   21.2580    2.7590   -4.5106 H   0  0  0  0  0  0  0  0  0  0  0  0
   20.0561    3.2229   -3.4614 H   0  0  0  0  0  0  0  0  0  0  0  0
   20.6118    5.5627   -4.1542 H   0  0  0  0  0  0  0  0  0  0  0  0
   21.9895    5.0589   -5.0144 H   0  0  0  0  0  0  0  0  0  0  0  0
  1  7  1  0
  1  2  2  0
  1  5  1  0
  2  3  1  0
  2 20  1  0
  3  4  1  0
  4  8  2  0
  4  6  1  0
  6 10  1  0
  6  7  2  0
  8  9  1  0
  9 12  1  0
  9 10  2  0
 12 13  1  0
 13 17  1  0
 13 14  2  0
 14 15  1  0
 15 16  2  0
 16 17  1  0
 17 18  1  0
 18 19  1  0
 20 24  1  0
 20 21  1  0
 21 22  2  0
 22 25  1  0
 22 23  1  0
 24 25  2  0
 23 26  1  0
 26 29  1  0
 26 27  1  0
 27 28  1  0
 28 29  1  0
  5 11  1  0
  3 30  1  0
  7 31  1  0
 10 32  1  0
 11 33  1  1
 11 34  1  0
 11 35  1  0
 12 36  1  0
 15 37  1  0
 16 38  1  0
 18 39  1  1
 18 40  1  0
 19 41  1  1
 19 42  1  0
 19 43  1  0
 21 44  1  0
 23 45  1  0
 24 46  1  0
 26 47  1  1
 27 48  1  6
 27 49  1  0
 28 50  1  6
 28 51  1  0
 29 52  1  1
 29 53  1  0
M  END
>  <Pose ID>  (125)
12

>  <Score>  (125)
-6.26369047164917

>  <smiles>  (125)
CCn1ccnc1Nc1cc2cc(OC)c(-n3cnc(NC4CCC4)c3)[nH]c-2n1

$$$$

     RDKit          3D

 44 47  0  0  0  0  0  0  0  0999 V2000
   25.3780    9.5610   -6.9350 C   0  0  0  0  0  0  0  0  0  0  0  0
   25.2830    8.1940   -6.6880 C   0  0  0  0  0  0  0  0  0  0  0  0
   25.9560    7.2910   -7.5010 N   0  0  0  0  0  0  0  0  0  0  0  0
   26.7290    7.7600   -8.5650 C   0  0  0  0  0  0  0  0  0  0  0  0
   24.8420   10.5770   -6.3120 O   0  0  0  0  0  0  0  0  0  0  0  0
   26.8210    9.1210   -8.8060 C   0  0  0  0  0  0  0  0  0  0  0  0
   26.1480   10.0210   -7.9960 C   0  0  0  0  0  0  0  0  0  0  0  0
   27.4620    7.0910   -9.4730 N   0  0  0  0  0  0  0  0  0  0  0  0
   28.0400    8.0030  -10.3260 C   0  0  0  0  0  0  0  0  0  0  0  0
   27.5400    9.2080   -9.7860 C   0  0  0  0  0  0  0  0  0  0  0  0
   25.7630   11.2580   -5.4680 C   0  0  1  0  0  0  0  0  0  0  0  0
   28.8710    7.9790  -11.4200 N   0  0  0  0  0  0  0  0  0  0  0  0
   29.2480    9.1330  -12.0200 C   0  0  0  0  0  0  0  0  0  0  0  0
   30.5970    9.5330  -12.1670 N   0  0  0  0  0  0  0  0  0  0  0  0
   30.6130   10.7650  -12.8350 C   0  0  0  0  0  0  0  0  0  0  0  0
   29.2220   10.9670  -13.0200 C   0  0  0  0  0  0  0  0  0  0  0  0
   28.4110    9.9950  -12.5450 N   0  0  0  0  0  0  0  0  0  0  0  0
   26.9410    9.9610  -12.6500 C   0  0  1  0  0  0  0  0  0  0  0  0
   24.5240    7.7360   -5.6380 N   0  0  0  0  0  0  0  0  0  0  0  0
   24.1230    6.3320   -5.6040 C   0  0  1  0  0  0  0  0  0  0  0  0
   23.0340    6.0520   -4.5310 C   0  0  0  0  0  0  0  0  0  0  0  0
   21.7080    5.9300   -4.9300 N   0  0  0  0  0  0  0  0  0  0  0  0
   20.7190    5.6790   -3.9880 C   0  0  0  0  0  0  0  0  0  0  0  0
   21.0540    5.5510   -2.6460 C   0  0  0  0  0  0  0  0  0  0  0  0
   23.3700    5.9230   -3.1890 N   0  0  0  0  0  0  0  0  0  0  0  0
   22.3270    5.6630   -2.2530 C   0  0  0  0  0  0  0  0  0  0  0  0
   25.8851    6.2796   -7.3197 H   0  0  0  0  0  0  0  0  0  0  0  0
   26.2233   11.1006   -8.1930 H   0  0  0  0  0  0  0  0  0  0  0  0
   27.7887   10.1829  -10.2306 H   0  0  0  0  0  0  0  0  0  0  0  0
   25.5057   11.0677   -4.4156 H   0  0  0  0  0  0  0  0  0  0  0  0
   26.7817   10.8942   -5.6680 H   0  0  0  0  0  0  0  0  0  0  0  0
   25.7137   12.3386   -5.6680 H   0  0  0  0  0  0  0  0  0  0  0  0
   29.2093    7.0776  -11.7860 H   0  0  0  0  0  0  0  0  0  0  0  0
   31.4636   11.3962  -13.1316 H   0  0  0  0  0  0  0  0  0  0  0  0
   28.8255   11.8625  -13.5209 H   0  0  0  0  0  0  0  0  0  0  0  0
   26.5015    9.9508  -11.6417 H   0  0  0  0  0  0  0  0  0  0  0  0
   26.5915   10.8513  -13.1933 H   0  0  0  0  0  0  0  0  0  0  0  0
   26.6331    9.0555  -13.1933 H   0  0  0  0  0  0  0  0  0  0  0  0
   24.2408    8.3764   -4.8826 H   0  0  0  0  0  0  0  0  0  0  0  0
   23.7256    6.0542   -6.5914 H   0  0  0  0  0  0  0  0  0  0  0  0
   25.0104    5.7362   -5.3442 H   0  0  0  0  0  0  0  0  0  0  0  0
   19.6701    5.5815   -4.3046 H   0  0  0  0  0  0  0  0  0  0  0  0
   20.2673    5.3563   -1.9022 H   0  0  0  0  0  0  0  0  0  0  0  0
   22.5742    5.5524   -1.1869 H   0  0  0  0  0  0  0  0  0  0  0  0
  1  7  1  0
  1  2  2  0
  1  5  1  0
  2  3  1  0
  2 19  1  0
  3  4  1  0
  4  8  2  0
  4  6  1  0
  6 10  1  0
  6  7  2  0
  8  9  1  0
  9 12  1  0
  9 10  2  0
 12 13  1  0
 13 17  1  0
 13 14  2  0
 14 15  1  0
 15 16  2  0
 16 17  1  0
 17 18  1  0
  5 11  1  0
 19 20  1  0
 20 21  1  0
 21 22  2  0
 21 25  1  0
 22 23  1  0
 23 24  2  0
 24 26  1  0
 25 26  2  0
  3 27  1  0
  7 28  1  0
 10 29  1  0
 11 30  1  1
 11 31  1  0
 11 32  1  0
 12 33  1  0
 15 34  1  0
 16 35  1  0
 18 36  1  1
 18 37  1  0
 18 38  1  0
 19 39  1  0
 20 40  1  6
 20 41  1  0
 23 42  1  0
 24 43  1  0
 26 44  1  0
M  END
>  <Pose ID>  (126)
101

>  <Score>  (126)
-6.242430210113525

>  <smiles>  (126)
COc1cc2cc(Nc3nccn3C)nc-2[nH]c1NCc1ncccn1

$$$$

     RDKit          3D

 44 47  0  0  0  0  0  0  0  0999 V2000
   25.3610    9.5620   -6.9090 C   0  0  0  0  0  0  0  0  0  0  0  0
   25.2710    8.1940   -6.6620 C   0  0  0  0  0  0  0  0  0  0  0  0
   25.9450    7.2940   -7.4760 N   0  0  0  0  0  0  0  0  0  0  0  0
   26.7150    7.7630   -8.5400 C   0  0  0  0  0  0  0  0  0  0  0  0
   24.8240   10.5760   -6.2870 O   0  0  0  0  0  0  0  0  0  0  0  0
   26.8030    9.1260   -8.7830 C   0  0  0  0  0  0  0  0  0  0  0  0
   26.1290   10.0230   -7.9720 C   0  0  0  0  0  0  0  0  0  0  0  0
   27.4490    7.0970   -9.4490 N   0  0  0  0  0  0  0  0  0  0  0  0
   28.0240    8.0090  -10.3030 C   0  0  0  0  0  0  0  0  0  0  0  0
   27.5200    9.2140   -9.7640 C   0  0  0  0  0  0  0  0  0  0  0  0
   25.7430   11.2600   -5.4450 C   0  0  1  0  0  0  0  0  0  0  0  0
   28.8540    7.9870  -11.3990 N   0  0  0  0  0  0  0  0  0  0  0  0
   29.2270    9.1430  -11.9990 C   0  0  0  0  0  0  0  0  0  0  0  0
   30.5740    9.5470  -12.1480 N   0  0  0  0  0  0  0  0  0  0  0  0
   30.5860   10.7770  -12.8170 C   0  0  0  0  0  0  0  0  0  0  0  0
   29.1950   10.9760  -13.0010 C   0  0  0  0  0  0  0  0  0  0  0  0
   28.3870   10.0010  -12.5240 N   0  0  0  0  0  0  0  0  0  0  0  0
   26.9170    9.9630  -12.6270 C   0  0  1  0  0  0  0  0  0  0  0  0
   24.5150    7.7340   -5.6110 N   0  0  0  0  0  0  0  0  0  0  0  0
   24.1160    6.3300   -5.5780 C   0  0  1  0  0  0  0  0  0  0  0  0
   23.0290    6.0490   -4.5110 C   0  0  0  0  0  0  0  0  0  0  0  0
   21.7040    5.9180   -4.9100 N   0  0  0  0  0  0  0  0  0  0  0  0
   20.7150    5.6680   -3.9660 C   0  0  0  0  0  0  0  0  0  0  0  0
   23.3640    5.9320   -3.1670 C   0  0  0  0  0  0  0  0  0  0  0  0
   22.3750    5.6830   -2.2230 N   0  0  0  0  0  0  0  0  0  0  0  0
   21.0680    5.5500   -2.5960 C   0  0  0  0  0  0  0  0  0  0  0  0
   25.8766    6.2824   -7.2946 H   0  0  0  0  0  0  0  0  0  0  0  0
   26.2014   11.1028   -8.1692 H   0  0  0  0  0  0  0  0  0  0  0  0
   27.7644   10.1891  -10.2107 H   0  0  0  0  0  0  0  0  0  0  0  0
   25.4873   11.0697   -4.3922 H   0  0  0  0  0  0  0  0  0  0  0  0
   26.7626   10.8993   -5.6457 H   0  0  0  0  0  0  0  0  0  0  0  0
   25.6901   12.3402   -5.6457 H   0  0  0  0  0  0  0  0  0  0  0  0
   29.1941    7.0866  -11.7659 H   0  0  0  0  0  0  0  0  0  0  0  0
   31.4349   11.4098  -13.1153 H   0  0  0  0  0  0  0  0  0  0  0  0
   28.7957   11.8702  -13.5020 H   0  0  0  0  0  0  0  0  0  0  0  0
   26.4789    9.9517  -11.6181 H   0  0  0  0  0  0  0  0  0  0  0  0
   26.5644   10.8523  -13.1699 H   0  0  0  0  0  0  0  0  0  0  0  0
   26.6108    9.0566  -13.1699 H   0  0  0  0  0  0  0  0  0  0  0  0
   24.2327    8.3731   -4.8542 H   0  0  0  0  0  0  0  0  0  0  0  0
   23.7210    6.0519   -6.5662 H   0  0  0  0  0  0  0  0  0  0  0  0
   25.0038    5.7355   -5.3164 H   0  0  0  0  0  0  0  0  0  0  0  0
   19.6656    5.5623   -4.2784 H   0  0  0  0  0  0  0  0  0  0  0  0
   24.4123    6.0365   -2.8505 H   0  0  0  0  0  0  0  0  0  0  0  0
   20.2938    5.3527   -1.8399 H   0  0  0  0  0  0  0  0  0  0  0  0
  1  7  1  0
  1  2  2  0
  1  5  1  0
  2  3  1  0
  2 19  1  0
  3  4  1  0
  4  8  2  0
  4  6  1  0
  6 10  1  0
  6  7  2  0
  8  9  1  0
  9 12  1  0
  9 10  2  0
 12 13  1  0
 13 17  1  0
 13 14  2  0
 14 15  1  0
 15 16  2  0
 16 17  1  0
 17 18  1  0
  5 11  1  0
 19 20  1  0
 20 21  1  0
 21 22  2  0
 21 24  1  0
 22 23  1  0
 23 26  2  0
 24 25  2  0
 25 26  1  0
  3 27  1  0
  7 28  1  0
 10 29  1  0
 11 30  1  1
 11 31  1  0
 11 32  1  0
 12 33  1  0
 15 34  1  0
 16 35  1  0
 18 36  1  1
 18 37  1  0
 18 38  1  0
 19 39  1  0
 20 40  1  6
 20 41  1  0
 23 42  1  0
 24 43  1  0
 26 44  1  0
M  END
>  <Pose ID>  (127)
103

>  <Score>  (127)
-6.24077844619751

>  <smiles>  (127)
COc1cc2cc(Nc3nccn3C)nc-2[nH]c1NCc1cnccn1

$$$$

     RDKit          3D

 46 49  0  0  0  0  0  0  0  0999 V2000
   25.4720    9.6820   -6.9120 C   0  0  0  0  0  0  0  0  0  0  0  0
   25.4650    8.3290   -6.5880 C   0  0  0  0  0  0  0  0  0  0  0  0
   26.1780    7.4220   -7.3640 N   0  0  0  0  0  0  0  0  0  0  0  0
   26.9030    7.8740   -8.4670 C   0  0  0  0  0  0  0  0  0  0  0  0
   24.8870   10.6970   -6.3360 O   0  0  0  0  0  0  0  0  0  0  0  0
   26.9070    9.2250   -8.7860 C   0  0  0  0  0  0  0  0  0  0  0  0
   26.1950   10.1270   -8.0130 C   0  0  0  0  0  0  0  0  0  0  0  0
   27.6580    7.2010   -9.3510 N   0  0  0  0  0  0  0  0  0  0  0  0
   28.1660    8.0960  -10.2650 C   0  0  0  0  0  0  0  0  0  0  0  0
   27.6030    9.2980   -9.7830 C   0  0  0  0  0  0  0  0  0  0  0  0
   25.7780   11.4800   -5.5510 C   0  0  1  0  0  0  0  0  0  0  0  0
   28.9790    8.0590  -11.3740 N   0  0  0  0  0  0  0  0  0  0  0  0
   29.2760    9.1990  -12.0430 C   0  0  0  0  0  0  0  0  0  0  0  0
   30.5950    9.6700  -12.2410 N   0  0  0  0  0  0  0  0  0  0  0  0
   30.5240   10.8610  -12.9750 C   0  0  0  0  0  0  0  0  0  0  0  0
   29.1210   10.9680  -13.1440 C   0  0  0  0  0  0  0  0  0  0  0  0
   28.3790    9.9770  -12.5980 N   0  0  0  0  0  0  0  0  0  0  0  0
   26.9130    9.8500  -12.6720 C   0  0  1  0  0  0  0  0  0  0  0  0
   24.7540    7.8860   -5.4990 N   0  0  0  0  0  0  0  0  0  0  0  0
   24.4380    6.4640   -5.3810 C   0  0  1  0  0  0  0  0  0  0  0  0
   23.3810    6.1820   -4.2830 C   0  0  0  0  0  0  0  0  0  0  0  0
   22.0610    5.9570   -4.6570 N   0  0  0  0  0  0  0  0  0  0  0  0
   21.0990    5.7010   -3.6870 C   0  0  0  0  0  0  0  0  0  0  0  0
   23.7370    6.1540   -2.9400 C   0  0  0  0  0  0  0  0  0  0  0  0
   22.7740    5.8990   -1.9710 C   0  0  0  0  0  0  0  0  0  0  0  0
   21.4750    5.6900   -2.3100 C   0  0  0  0  0  0  0  0  0  0  0  0
   25.0310    6.3770   -2.5740 O   0  0  0  0  0  0  0  0  0  0  0  0
   20.2460    5.4060   -1.0410 Cl  0  0  0  0  0  0  0  0  0  0  0  0
   26.1710    6.4200   -7.1254 H   0  0  0  0  0  0  0  0  0  0  0  0
   26.2015   11.1964   -8.2704 H   0  0  0  0  0  0  0  0  0  0  0  0
   27.7851   10.2590  -10.2863 H   0  0  0  0  0  0  0  0  0  0  0  0
   25.5777   11.3040   -4.4838 H   0  0  0  0  0  0  0  0  0  0  0  0
   26.8155   11.1961   -5.7811 H   0  0  0  0  0  0  0  0  0  0  0  0
   25.6298   12.5454   -5.7811 H   0  0  0  0  0  0  0  0  0  0  0  0
   29.3639    7.1600  -11.6974 H   0  0  0  0  0  0  0  0  0  0  0  0
   31.3293   11.5252  -13.3220 H   0  0  0  0  0  0  0  0  0  0  0  0
   28.6622   11.8074  -13.6871 H   0  0  0  0  0  0  0  0  0  0  0  0
   26.4963    9.8139  -11.6546 H   0  0  0  0  0  0  0  0  0  0  0  0
   26.4966   10.7154  -13.2083 H   0  0  0  0  0  0  0  0  0  0  0  0
   26.6516    8.9258  -13.2083 H   0  0  0  0  0  0  0  0  0  0  0  0
   24.4469    8.5492   -4.7733 H   0  0  0  0  0  0  0  0  0  0  0  0
   24.0485    6.1076   -6.3460 H   0  0  0  0  0  0  0  0  0  0  0  0
   25.3620    5.9376   -5.0997 H   0  0  0  0  0  0  0  0  0  0  0  0
   20.0559    5.5083   -3.9782 H   0  0  0  0  0  0  0  0  0  0  0  0
   23.0684    5.8658   -0.9117 H   0  0  0  0  0  0  0  0  0  0  0  0
   25.2853    6.3572   -1.6174 H   0  0  0  0  0  0  0  0  0  0  0  0
  1  7  1  0
  1  2  2  0
  1  5  1  0
  2  3  1  0
  2 19  1  0
  3  4  1  0
  4  8  2  0
  4  6  1  0
  6 10  1  0
  6  7  2  0
  8  9  1  0
  9 12  1  0
  9 10  2  0
 12 13  1  0
 13 17  1  0
 13 14  2  0
 14 15  1  0
 15 16  2  0
 16 17  1  0
 17 18  1  0
  5 11  1  0
 19 20  1  0
 20 21  1  0
 21 22  2  0
 21 24  1  0
 22 23  1  0
 23 26  2  0
 24 27  1  0
 24 25  2  0
 25 26  1  0
 26 28  1  0
  3 29  1  0
  7 30  1  0
 10 31  1  0
 11 32  1  1
 11 33  1  0
 11 34  1  0
 12 35  1  0
 15 36  1  0
 16 37  1  0
 18 38  1  1
 18 39  1  0
 18 40  1  0
 19 41  1  0
 20 42  1  6
 20 43  1  0
 23 44  1  0
 25 45  1  0
 27 46  1  0
M  END
>  <Pose ID>  (128)
106

>  <Score>  (128)
-6.2349934577941895

>  <smiles>  (128)
COc1cc2cc(Nc3nccn3C)nc-2[nH]c1NCc1ncc(Cl)cc1O

$$$$

     RDKit          3D

 45 48  0  0  0  0  0  0  0  0999 V2000
   25.2940    9.4250   -6.9300 C   0  0  0  0  0  0  0  0  0  0  0  0
   25.2850    8.0530   -6.6870 C   0  0  0  0  0  0  0  0  0  0  0  0
   25.9950    7.1950   -7.5130 N   0  0  0  0  0  0  0  0  0  0  0  0
   26.7220    7.7070   -8.5860 C   0  0  0  0  0  0  0  0  0  0  0  0
   24.7120   10.4060   -6.2970 O   0  0  0  0  0  0  0  0  0  0  0  0
   26.7330    9.0740   -8.8280 C   0  0  0  0  0  0  0  0  0  0  0  0
   26.0210    9.9330   -8.0020 C   0  0  0  0  0  0  0  0  0  0  0  0
   27.4780    7.0850   -9.5100 N   0  0  0  0  0  0  0  0  0  0  0  0
   27.9900    8.0310  -10.3690 C   0  0  0  0  0  0  0  0  0  0  0  0
   27.4300    9.2030   -9.8190 C   0  0  0  0  0  0  0  0  0  0  0  0
   25.6060   11.1380   -5.4660 C   0  0  1  0  0  0  0  0  0  0  0  0
   28.8040    8.0560  -11.4760 N   0  0  0  0  0  0  0  0  0  0  0  0
   29.1030    9.2320  -12.0780 C   0  0  0  0  0  0  0  0  0  0  0  0
   30.4270    9.7110  -12.2440 N   0  0  0  0  0  0  0  0  0  0  0  0
   30.3580   10.9430  -12.9090 C   0  0  0  0  0  0  0  0  0  0  0  0
   28.9550   11.0630  -13.0740 C   0  0  0  0  0  0  0  0  0  0  0  0
   28.2120   10.0450  -12.5880 N   0  0  0  0  0  0  0  0  0  0  0  0
   26.7440    9.9260  -12.6680 C   0  0  1  0  0  0  0  0  0  0  0  0
   24.5140    7.5100   -5.5410 C   0  0  0  0  0  0  0  0  0  0  0  0
   24.0980    6.3540   -5.5340 O   0  0  0  0  0  0  0  0  0  0  0  0
   24.1970    8.3170   -4.3870 N   0  0  0  0  0  0  0  0  0  0  0  0
   23.6910    7.8480   -3.2340 C   0  0  0  0  0  0  0  0  0  0  0  0
   22.6630    8.5590   -2.6280 N   0  0  0  0  0  0  0  0  0  0  0  0
   22.1110    8.1060   -1.4360 C   0  0  0  0  0  0  0  0  0  0  0  0
   22.5870    6.9400   -0.8510 C   0  0  0  0  0  0  0  0  0  0  0  0
   23.6140    6.2260   -1.4560 C   0  0  0  0  0  0  0  0  0  0  0  0
   24.1440    6.6660   -2.6640 C   0  0  0  0  0  0  0  0  0  0  0  0
   25.1120    5.9350   -3.2900 O   0  0  0  0  0  0  0  0  0  0  0  0
   25.9851    6.1808   -7.3338 H   0  0  0  0  0  0  0  0  0  0  0  0
   26.0316   11.0159   -8.1951 H   0  0  0  0  0  0  0  0  0  0  0  0
   27.6147   10.1911  -10.2657 H   0  0  0  0  0  0  0  0  0  0  0  0
   25.3678   10.9430   -4.4100 H   0  0  0  0  0  0  0  0  0  0  0  0
   26.6396   10.8235   -5.6729 H   0  0  0  0  0  0  0  0  0  0  0  0
   25.5016   12.2133   -5.6729 H   0  0  0  0  0  0  0  0  0  0  0  0
   29.1885    7.1765  -11.8496 H   0  0  0  0  0  0  0  0  0  0  0  0
   31.1649   11.6246  -13.2162 H   0  0  0  0  0  0  0  0  0  0  0  0
   28.4987   11.9333  -13.5684 H   0  0  0  0  0  0  0  0  0  0  0  0
   26.3230    9.8919  -11.6523 H   0  0  0  0  0  0  0  0  0  0  0  0
   26.3345   10.7939  -13.2057 H   0  0  0  0  0  0  0  0  0  0  0  0
   26.4797    9.0035  -13.2057 H   0  0  0  0  0  0  0  0  0  0  0  0
   24.3721    9.3299   -4.4524 H   0  0  0  0  0  0  0  0  0  0  0  0
   21.2978    8.6704   -0.9563 H   0  0  0  0  0  0  0  0  0  0  0  0
   22.1504    6.5811    0.0927 H   0  0  0  0  0  0  0  0  0  0  0  0
   24.0068    5.3151   -0.9807 H   0  0  0  0  0  0  0  0  0  0  0  0
   25.4357    5.0919   -2.8843 H   0  0  0  0  0  0  0  0  0  0  0  0
  1  7  1  0
  1  2  2  0
  1  5  1  0
  2  3  1  0
  2 19  1  0
  3  4  1  0
  4  8  2  0
  4  6  1  0
  6 10  1  0
  6  7  2  0
  8  9  1  0
  9 12  1  0
  9 10  2  0
 19 20  2  0
 19 21  1  0
 21 22  1  0
 22 27  1  0
 22 23  2  0
 23 24  1  0
 24 25  2  0
 25 26  1  0
 26 27  2  0
 27 28  1  0
 12 13  1  0
 13 17  1  0
 13 14  2  0
 14 15  1  0
 15 16  2  0
 16 17  1  0
 17 18  1  0
  5 11  1  0
  3 29  1  0
  7 30  1  0
 10 31  1  0
 11 32  1  1
 11 33  1  0
 11 34  1  0
 12 35  1  0
 15 36  1  0
 16 37  1  0
 18 38  1  1
 18 39  1  0
 18 40  1  0
 21 41  1  0
 24 42  1  0
 25 43  1  0
 26 44  1  0
 28 45  1  0
M  END
>  <Pose ID>  (129)
75

>  <Score>  (129)
-6.185352802276611

>  <smiles>  (129)
COc1cc2cc(Nc3nccn3C)nc-2[nH]c1C(=O)Nc1ncccc1O

$$$$

     RDKit          3D

 41 44  0  0  0  0  0  0  0  0999 V2000
   25.3500    9.0760   -6.9950 C   0  0  0  0  0  0  0  0  0  0  0  0
   25.3470    7.6890   -6.8740 C   0  0  0  0  0  0  0  0  0  0  0  0
   26.0540    6.9080   -7.7760 N   0  0  0  0  0  0  0  0  0  0  0  0
   26.7730    7.5140   -8.8060 C   0  0  0  0  0  0  0  0  0  0  0  0
   24.7710    9.9950   -6.2750 O   0  0  0  0  0  0  0  0  0  0  0  0
   26.7780    8.8970   -8.9250 C   0  0  0  0  0  0  0  0  0  0  0  0
   26.0710    9.6780   -8.0250 C   0  0  0  0  0  0  0  0  0  0  0  0
   27.5230    6.9770   -9.7820 N   0  0  0  0  0  0  0  0  0  0  0  0
   28.0280    7.9970  -10.5600 C   0  0  0  0  0  0  0  0  0  0  0  0
   27.4690    9.1150   -9.9040 C   0  0  0  0  0  0  0  0  0  0  0  0
   25.6660   10.6540   -5.3880 C   0  0  1  0  0  0  0  0  0  0  0  0
   28.8350    8.1220  -11.6670 N   0  0  0  0  0  0  0  0  0  0  0  0
   29.1270    9.3480  -12.1630 C   0  0  0  0  0  0  0  0  0  0  0  0
   30.4470    9.8420  -12.2950 N   0  0  0  0  0  0  0  0  0  0  0  0
   30.3760   11.1270  -12.8490 C   0  0  0  0  0  0  0  0  0  0  0  0
   28.9690   11.2580  -12.9930 C   0  0  0  0  0  0  0  0  0  0  0  0
   28.2310   10.1990  -12.5960 N   0  0  0  0  0  0  0  0  0  0  0  0
   26.7620   10.0850  -12.6770 C   0  0  1  0  0  0  0  0  0  0  0  0
   24.5750    7.3600   -5.7160 C   0  0  0  0  0  0  0  0  0  0  0  0
   23.2110    7.6280   -5.7430 C   0  0  0  0  0  0  0  0  0  0  0  0
   22.4050    7.2360   -4.6800 C   0  0  0  0  0  0  0  0  0  0  0  0
   22.9640    6.5790   -3.5900 C   0  0  0  0  0  0  0  0  0  0  0  0
   24.3270    6.3110   -3.5630 N   0  0  0  0  0  0  0  0  0  0  0  0
   25.1280    6.6560   -4.6640 C   0  0  0  0  0  0  0  0  0  0  0  0
   22.6630    8.2740   -6.8110 O   0  0  0  0  0  0  0  0  0  0  0  0
   26.0481    5.8820   -7.6854 H   0  0  0  0  0  0  0  0  0  0  0  0
   26.0787   10.7736   -8.1233 H   0  0  0  0  0  0  0  0  0  0  0  0
   27.6498   10.1394  -10.2617 H   0  0  0  0  0  0  0  0  0  0  0  0
   25.3758   10.4404   -4.3487 H   0  0  0  0  0  0  0  0  0  0  0  0
   26.6898   10.2925   -5.5646 H   0  0  0  0  0  0  0  0  0  0  0  0
   25.6247   11.7389   -5.5646 H   0  0  0  0  0  0  0  0  0  0  0  0
   29.2185    7.2803  -12.1202 H   0  0  0  0  0  0  0  0  0  0  0  0
   31.1808   11.8333  -13.1008 H   0  0  0  0  0  0  0  0  0  0  0  0
   28.5077   12.1683  -13.4036 H   0  0  0  0  0  0  0  0  0  0  0  0
   26.3402   10.0523  -11.6616 H   0  0  0  0  0  0  0  0  0  0  0  0
   26.3559   10.9543  -13.2149 H   0  0  0  0  0  0  0  0  0  0  0  0
   26.4949    9.1634  -13.2149 H   0  0  0  0  0  0  0  0  0  0  0  0
   21.3254    7.4457   -4.7016 H   0  0  0  0  0  0  0  0  0  0  0  0
   22.3266    6.2710   -2.7480 H   0  0  0  0  0  0  0  0  0  0  0  0
   26.1892    6.3673   -4.6884 H   0  0  0  0  0  0  0  0  0  0  0  0
   21.6916    8.4644   -6.8293 H   0  0  0  0  0  0  0  0  0  0  0  0
  1  7  1  0
  1  2  2  0
  1  5  1  0
  2  3  1  0
  2 19  1  0
  3  4  1  0
  4  8  2  0
  4  6  1  0
  6 10  1  0
  6  7  2  0
  8  9  1  0
  9 12  1  0
  9 10  2  0
 12 13  1  0
 13 17  1  0
 13 14  2  0
 14 15  1  0
 15 16  2  0
 16 17  1  0
 17 18  1  0
 19 20  2  0
 19 24  1  0
 20 25  1  0
 20 21  1  0
 21 22  2  0
 22 23  1  0
 23 24  2  0
  5 11  1  0
  3 26  1  0
  7 27  1  0
 10 28  1  0
 11 29  1  1
 11 30  1  0
 11 31  1  0
 12 32  1  0
 15 33  1  0
 16 34  1  0
 18 35  1  1
 18 36  1  0
 18 37  1  0
 21 38  1  0
 22 39  1  0
 24 40  1  0
 25 41  1  0
M  END
>  <Pose ID>  (130)
57

>  <Score>  (130)
-6.176449298858643

>  <smiles>  (130)
COc1cc2cc(Nc3nccn3C)nc-2[nH]c1-c1cnccc1O

$$$$

     RDKit          3D

 46 49  0  0  0  0  0  0  0  0999 V2000
   25.5020    9.4830   -6.8840 C   0  0  0  0  0  0  0  0  0  0  0  0
   25.4380    8.1080   -6.6640 C   0  0  0  0  0  0  0  0  0  0  0  0
   26.1000    7.2350   -7.5170 N   0  0  0  0  0  0  0  0  0  0  0  0
   26.8310    7.7370   -8.5910 C   0  0  0  0  0  0  0  0  0  0  0  0
   24.9710   10.4760   -6.2240 O   0  0  0  0  0  0  0  0  0  0  0  0
   26.8960    9.1070   -8.8080 C   0  0  0  0  0  0  0  0  0  0  0  0
   26.2340    9.9770   -7.9560 C   0  0  0  0  0  0  0  0  0  0  0  0
   27.5470    7.1000   -9.5360 N   0  0  0  0  0  0  0  0  0  0  0  0
   28.0860    8.0400  -10.3860 C   0  0  0  0  0  0  0  0  0  0  0  0
   27.5840    9.2270   -9.8060 C   0  0  0  0  0  0  0  0  0  0  0  0
   25.9060   11.1540   -5.3940 C   0  0  1  0  0  0  0  0  0  0  0  0
   28.8830    8.0520  -11.5060 N   0  0  0  0  0  0  0  0  0  0  0  0
   29.2250    9.2250  -12.0900 C   0  0  0  0  0  0  0  0  0  0  0  0
   30.5640    9.6510  -12.2690 N   0  0  0  0  0  0  0  0  0  0  0  0
   30.5400   10.8950  -12.9110 C   0  0  0  0  0  0  0  0  0  0  0  0
   29.1410   11.0800  -13.0500 C   0  0  0  0  0  0  0  0  0  0  0  0
   28.3600   10.0830  -12.5720 N   0  0  0  0  0  0  0  0  0  0  0  0
   26.8870   10.0290  -12.6330 C   0  0  1  0  0  0  0  0  0  0  0  0
   24.7180    7.6160   -5.6030 N   0  0  0  0  0  0  0  0  0  0  0  0
   24.5930    6.1820   -5.2910 C   0  0  1  0  0  0  0  0  0  0  0  0
   23.4690    5.8960   -4.2100 C   0  0  0  0  0  0  0  0  0  0  0  0
   23.3690    4.7170   -3.4830 N   0  0  0  0  0  0  0  0  0  0  0  0
   22.5090    6.8890   -4.0610 C   0  0  0  0  0  0  0  0  0  0  0  0
   21.4460    6.7010   -3.1840 C   0  0  0  0  0  0  0  0  0  0  0  0
   21.3460    5.5220   -2.4560 C   0  0  0  0  0  0  0  0  0  0  0  0
   22.2970    4.5260   -2.6010 C   0  0  0  0  0  0  0  0  0  0  0  0
   20.5020    7.6740   -3.0390 O   0  0  0  0  0  0  0  0  0  0  0  0
   19.9800    5.2890   -1.3240 Cl  0  0  0  0  0  0  0  0  0  0  0  0
   26.0506    6.2189   -7.3559 H   0  0  0  0  0  0  0  0  0  0  0  0
   26.2885   11.0619   -8.1293 H   0  0  0  0  0  0  0  0  0  0  0  0
   27.8047   10.2149  -10.2365 H   0  0  0  0  0  0  0  0  0  0  0  0
   25.6571   10.9735   -4.3378 H   0  0  0  0  0  0  0  0  0  0  0  0
   26.9193   10.7793   -5.6011 H   0  0  0  0  0  0  0  0  0  0  0  0
   25.8648   12.2335   -5.6011 H   0  0  0  0  0  0  0  0  0  0  0  0
   29.2219    7.1641  -11.9031 H   0  0  0  0  0  0  0  0  0  0  0  0
   31.3716   11.5452  -13.2202 H   0  0  0  0  0  0  0  0  0  0  0  0
   28.7158   11.9799  -13.5183 H   0  0  0  0  0  0  0  0  0  0  0  0
   26.4780   10.0140  -11.6120 H   0  0  0  0  0  0  0  0  0  0  0  0
   26.5094   10.9139  -13.1663 H   0  0  0  0  0  0  0  0  0  0  0  0
   26.5752    9.1188  -13.1663 H   0  0  0  0  0  0  0  0  0  0  0  0
   24.2372    8.2893   -4.9895 H   0  0  0  0  0  0  0  0  0  0  0  0
   24.3415    5.6399   -6.2145 H   0  0  0  0  0  0  0  0  0  0  0  0
   25.5534    5.8437   -4.8748 H   0  0  0  0  0  0  0  0  0  0  0  0
   22.5895    7.8232   -4.6361 H   0  0  0  0  0  0  0  0  0  0  0  0
   22.2115    3.5911   -2.0277 H   0  0  0  0  0  0  0  0  0  0  0  0
   19.7453    7.5404   -2.4148 H   0  0  0  0  0  0  0  0  0  0  0  0
  1  7  1  0
  1  2  2  0
  1  5  1  0
  2  3  1  0
  2 19  1  0
  3  4  1  0
  4  8  2  0
  4  6  1  0
  6 10  1  0
  6  7  2  0
  8  9  1  0
  9 12  1  0
  9 10  2  0
 12 13  1  0
 13 17  1  0
 13 14  2  0
 14 15  1  0
 15 16  2  0
 16 17  1  0
 17 18  1  0
  5 11  1  0
 19 20  1  0
 20 21  1  0
 21 23  1  0
 21 22  2  0
 22 26  1  0
 23 24  2  0
 24 27  1  0
 24 25  1  0
 25 26  2  0
 25 28  1  0
  3 29  1  0
  7 30  1  0
 10 31  1  0
 11 32  1  1
 11 33  1  0
 11 34  1  0
 12 35  1  0
 15 36  1  0
 16 37  1  0
 18 38  1  1
 18 39  1  0
 18 40  1  0
 19 41  1  0
 20 42  1  6
 20 43  1  0
 23 44  1  0
 26 45  1  0
 27 46  1  0
M  END
>  <Pose ID>  (131)
99

>  <Score>  (131)
-6.140465259552002

>  <smiles>  (131)
COc1cc2cc(Nc3nccn3C)nc-2[nH]c1NCc1cc(O)c(Cl)cn1

$$$$

     RDKit          3D

 45 48  0  0  0  0  0  0  0  0999 V2000
   25.3320    9.3230   -6.9670 C   0  0  0  0  0  0  0  0  0  0  0  0
   25.2870    7.9430   -6.7800 C   0  0  0  0  0  0  0  0  0  0  0  0
   25.9800    7.1030   -7.6390 N   0  0  0  0  0  0  0  0  0  0  0  0
   26.7240    7.6400   -8.6870 C   0  0  0  0  0  0  0  0  0  0  0  0
   24.7710   10.2910   -6.2950 O   0  0  0  0  0  0  0  0  0  0  0  0
   26.7700    9.0150   -8.8720 C   0  0  0  0  0  0  0  0  0  0  0  0
   26.0760    9.8570   -8.0140 C   0  0  0  0  0  0  0  0  0  0  0  0
   27.4690    7.0380   -9.6330 N   0  0  0  0  0  0  0  0  0  0  0  0
   28.0080    8.0060  -10.4510 C   0  0  0  0  0  0  0  0  0  0  0  0
   27.4740    9.1680   -9.8540 C   0  0  0  0  0  0  0  0  0  0  0  0
   25.6780   10.9660   -5.4310 C   0  0  1  0  0  0  0  0  0  0  0  0
   28.8270    8.0570  -11.5530 N   0  0  0  0  0  0  0  0  0  0  0  0
   29.1580    9.2490  -12.1050 C   0  0  0  0  0  0  0  0  0  0  0  0
   30.4940    9.7020  -12.2460 N   0  0  0  0  0  0  0  0  0  0  0  0
   30.4580   10.9610  -12.8600 C   0  0  0  0  0  0  0  0  0  0  0  0
   29.0590   11.1230  -13.0240 C   0  0  0  0  0  0  0  0  0  0  0  0
   28.2890   10.1040  -12.5840 N   0  0  0  0  0  0  0  0  0  0  0  0
   26.8190   10.0250  -12.6730 C   0  0  1  0  0  0  0  0  0  0  0  0
   24.4980    7.3720   -5.6600 C   0  0  0  0  0  0  0  0  0  0  0  0
   24.0540    6.2270   -5.7030 O   0  0  0  0  0  0  0  0  0  0  0  0
   24.1960    8.1380   -4.4760 N   0  0  0  0  0  0  0  0  0  0  0  0
   23.6730    7.6340   -3.3440 C   0  0  0  0  0  0  0  0  0  0  0  0
   22.6610    8.3450   -2.7130 N   0  0  0  0  0  0  0  0  0  0  0  0
   22.0920    7.8570   -1.5420 C   0  0  0  0  0  0  0  0  0  0  0  0
   22.5360    6.6560   -1.0050 C   0  0  0  0  0  0  0  0  0  0  0  0
   23.5490    5.9430   -1.6360 C   0  0  0  0  0  0  0  0  0  0  0  0
   24.0950    6.4190   -2.8230 C   0  0  0  0  0  0  0  0  0  0  0  0
   24.0060    4.7780   -1.0920 O   0  0  0  0  0  0  0  0  0  0  0  0
   25.9445    6.0828   -7.5020 H   0  0  0  0  0  0  0  0  0  0  0  0
   26.1144   10.9463   -8.1620 H   0  0  0  0  0  0  0  0  0  0  0  0
   27.6846   10.1691  -10.2583 H   0  0  0  0  0  0  0  0  0  0  0  0
   25.4065   10.7640   -4.3843 H   0  0  0  0  0  0  0  0  0  0  0  0
   26.7005   10.6074   -5.6204 H   0  0  0  0  0  0  0  0  0  0  0  0
   25.6281   12.0484   -5.6204 H   0  0  0  0  0  0  0  0  0  0  0  0
   29.1912    7.1844  -11.9615 H   0  0  0  0  0  0  0  0  0  0  0  0
   31.2828   11.6341  -13.1368 H   0  0  0  0  0  0  0  0  0  0  0  0
   28.6264   12.0246  -13.4822 H   0  0  0  0  0  0  0  0  0  0  0  0
   26.3910   10.0020  -11.6599 H   0  0  0  0  0  0  0  0  0  0  0  0
   26.4366   10.9039  -13.2127 H   0  0  0  0  0  0  0  0  0  0  0  0
   26.5330    9.1102  -13.2127 H   0  0  0  0  0  0  0  0  0  0  0  0
   24.3961    9.1481   -4.4990 H   0  0  0  0  0  0  0  0  0  0  0  0
   21.2913    8.4215   -1.0418 H   0  0  0  0  0  0  0  0  0  0  0  0
   22.0857    6.2683   -0.0793 H   0  0  0  0  0  0  0  0  0  0  0  0
   24.8620    5.8320   -3.3494 H   0  0  0  0  0  0  0  0  0  0  0  0
   24.7274    4.2710   -1.5421 H   0  0  0  0  0  0  0  0  0  0  0  0
  1  7  1  0
  1  2  2  0
  1  5  1  0
  2  3  1  0
  2 19  1  0
  3  4  1  0
  4  8  2  0
  4  6  1  0
  6 10  1  0
  6  7  2  0
  8  9  1  0
  9 12  1  0
  9 10  2  0
 19 20  2  0
 19 21  1  0
 21 22  1  0
 22 27  1  0
 22 23  2  0
 23 24  1  0
 24 25  2  0
 25 26  1  0
 26 27  2  0
 26 28  1  0
 12 13  1  0
 13 17  1  0
 13 14  2  0
 14 15  1  0
 15 16  2  0
 16 17  1  0
 17 18  1  0
  5 11  1  0
  3 29  1  0
  7 30  1  0
 10 31  1  0
 11 32  1  1
 11 33  1  0
 11 34  1  0
 12 35  1  0
 15 36  1  0
 16 37  1  0
 18 38  1  1
 18 39  1  0
 18 40  1  0
 21 41  1  0
 24 42  1  0
 25 43  1  0
 27 44  1  0
 28 45  1  0
M  END
>  <Pose ID>  (132)
77

>  <Score>  (132)
-6.137471675872803

>  <smiles>  (132)
COc1cc2cc(Nc3nccn3C)nc-2[nH]c1C(=O)Nc1cc(O)ccn1

$$$$

     RDKit          3D

 45 48  0  0  0  0  0  0  0  0999 V2000
   25.3780    9.5610   -6.9350 C   0  0  0  0  0  0  0  0  0  0  0  0
   25.2830    8.1940   -6.6890 C   0  0  0  0  0  0  0  0  0  0  0  0
   25.9560    7.2920   -7.5020 N   0  0  0  0  0  0  0  0  0  0  0  0
   26.7290    7.7610   -8.5660 C   0  0  0  0  0  0  0  0  0  0  0  0
   24.8410   10.5770   -6.3110 O   0  0  0  0  0  0  0  0  0  0  0  0
   26.8210    9.1230   -8.8060 C   0  0  0  0  0  0  0  0  0  0  0  0
   26.1480   10.0220   -7.9950 C   0  0  0  0  0  0  0  0  0  0  0  0
   27.4620    7.0930   -9.4740 N   0  0  0  0  0  0  0  0  0  0  0  0
   28.0410    8.0060  -10.3260 C   0  0  0  0  0  0  0  0  0  0  0  0
   27.5400    9.2100   -9.7850 C   0  0  0  0  0  0  0  0  0  0  0  0
   25.7620   11.2570   -5.4660 C   0  0  1  0  0  0  0  0  0  0  0  0
   28.8720    7.9830  -11.4200 N   0  0  0  0  0  0  0  0  0  0  0  0
   29.2490    9.1370  -12.0190 C   0  0  0  0  0  0  0  0  0  0  0  0
   30.5980    9.5370  -12.1650 N   0  0  0  0  0  0  0  0  0  0  0  0
   30.6140   10.7700  -12.8330 C   0  0  0  0  0  0  0  0  0  0  0  0
   29.2230   10.9720  -13.0180 C   0  0  0  0  0  0  0  0  0  0  0  0
   28.4120    9.9990  -12.5440 N   0  0  0  0  0  0  0  0  0  0  0  0
   26.9420    9.9650  -12.6490 C   0  0  1  0  0  0  0  0  0  0  0  0
   24.5230    7.7350   -5.6390 N   0  0  0  0  0  0  0  0  0  0  0  0
   24.1230    6.3310   -5.6060 C   0  0  1  0  0  0  0  0  0  0  0  0
   23.0330    6.0500   -4.5340 C   0  0  0  0  0  0  0  0  0  0  0  0
   21.7070    5.9290   -4.9330 N   0  0  0  0  0  0  0  0  0  0  0  0
   20.7180    5.6770   -3.9910 C   0  0  0  0  0  0  0  0  0  0  0  0
   21.0530    5.5480   -2.6490 C   0  0  0  0  0  0  0  0  0  0  0  0
   23.3690    5.9210   -3.1920 N   0  0  0  0  0  0  0  0  0  0  0  0
   22.3260    5.6600   -2.2560 C   0  0  0  0  0  0  0  0  0  0  0  0
   20.0780    5.3060   -1.7280 O   0  0  0  0  0  0  0  0  0  0  0  0
   25.8853    6.2805   -7.3209 H   0  0  0  0  0  0  0  0  0  0  0  0
   26.2235   11.1018   -8.1907 H   0  0  0  0  0  0  0  0  0  0  0  0
   27.7886   10.1852  -10.2290 H   0  0  0  0  0  0  0  0  0  0  0  0
   25.5039   11.0664   -4.4138 H   0  0  0  0  0  0  0  0  0  0  0  0
   26.7805   10.8926   -5.6655 H   0  0  0  0  0  0  0  0  0  0  0  0
   25.7136   12.3377   -5.6655 H   0  0  0  0  0  0  0  0  0  0  0  0
   29.2103    7.0819  -11.7867 H   0  0  0  0  0  0  0  0  0  0  0  0
   31.4646   11.4014  -13.1294 H   0  0  0  0  0  0  0  0  0  0  0  0
   28.8264   11.8680  -13.5180 H   0  0  0  0  0  0  0  0  0  0  0  0
   26.5025    9.9548  -11.6407 H   0  0  0  0  0  0  0  0  0  0  0  0
   26.5925   10.8553  -13.1923 H   0  0  0  0  0  0  0  0  0  0  0  0
   26.6341    9.0595  -13.1923 H   0  0  0  0  0  0  0  0  0  0  0  0
   24.2388    8.3749   -4.8836 H   0  0  0  0  0  0  0  0  0  0  0  0
   23.7267    6.0534   -6.5939 H   0  0  0  0  0  0  0  0  0  0  0  0
   25.0106    5.7356   -5.3457 H   0  0  0  0  0  0  0  0  0  0  0  0
   19.6691    5.5795   -4.3077 H   0  0  0  0  0  0  0  0  0  0  0  0
   22.5733    5.5486   -1.1900 H   0  0  0  0  0  0  0  0  0  0  0  0
   20.3132    5.2135   -0.7708 H   0  0  0  0  0  0  0  0  0  0  0  0
  1  7  1  0
  1  2  2  0
  1  5  1  0
  2  3  1  0
  2 19  1  0
  3  4  1  0
  4  8  2  0
  4  6  1  0
  6 10  1  0
  6  7  2  0
  8  9  1  0
  9 12  1  0
  9 10  2  0
 12 13  1  0
 13 17  1  0
 13 14  2  0
 14 15  1  0
 15 16  2  0
 16 17  1  0
 17 18  1  0
  5 11  1  0
 19 20  1  0
 20 21  1  0
 21 22  2  0
 21 25  1  0
 22 23  1  0
 23 24  2  0
 24 26  1  0
 24 27  1  0
 25 26  2  0
  3 28  1  0
  7 29  1  0
 10 30  1  0
 11 31  1  1
 11 32  1  0
 11 33  1  0
 12 34  1  0
 15 35  1  0
 16 36  1  0
 18 37  1  1
 18 38  1  0
 18 39  1  0
 19 40  1  0
 20 41  1  6
 20 42  1  0
 23 43  1  0
 26 44  1  0
 27 45  1  0
M  END
>  <Pose ID>  (133)
102

>  <Score>  (133)
-6.127767562866211

>  <smiles>  (133)
COc1cc2cc(Nc3nccn3C)nc-2[nH]c1NCc1ncc(O)cn1

$$$$

     RDKit          3D

 44 47  0  0  0  0  0  0  0  0999 V2000
   25.3010    9.2440   -7.0490 C   0  0  0  0  0  0  0  0  0  0  0  0
   25.2990    7.8630   -6.8680 C   0  0  0  0  0  0  0  0  0  0  0  0
   26.0290    7.0480   -7.7210 N   0  0  0  0  0  0  0  0  0  0  0  0
   26.7670    7.6130   -8.7580 C   0  0  0  0  0  0  0  0  0  0  0  0
   24.7020   10.1910   -6.3800 O   0  0  0  0  0  0  0  0  0  0  0  0
   26.7710    8.9900   -8.9370 C   0  0  0  0  0  0  0  0  0  0  0  0
   26.0390    9.8050   -8.0870 C   0  0  0  0  0  0  0  0  0  0  0  0
   27.5430    7.0390   -9.6970 N   0  0  0  0  0  0  0  0  0  0  0  0
   28.0590    8.0270  -10.5060 C   0  0  0  0  0  0  0  0  0  0  0  0
   27.4820    9.1700   -9.9110 C   0  0  0  0  0  0  0  0  0  0  0  0
   25.5760   10.8910   -5.5050 C   0  0  1  0  0  0  0  0  0  0  0  0
   28.8910    8.1080  -11.5960 N   0  0  0  0  0  0  0  0  0  0  0  0
   29.1900    9.3140  -12.1390 C   0  0  0  0  0  0  0  0  0  0  0  0
   30.5090    9.8070  -12.2650 N   0  0  0  0  0  0  0  0  0  0  0  0
   30.4440   11.0680  -12.8720 C   0  0  0  0  0  0  0  0  0  0  0  0
   29.0430   11.1870  -13.0520 C   0  0  0  0  0  0  0  0  0  0  0  0
   28.3000   10.1400  -12.6270 N   0  0  0  0  0  0  0  0  0  0  0  0
   26.8330   10.0150  -12.7350 C   0  0  1  0  0  0  0  0  0  0  0  0
   24.5610    7.2100   -5.6080 C   0  0  0  0  0  0  0  0  0  0  0  0
   23.2560    6.8850   -5.9580 C   0  0  0  0  0  0  0  0  0  0  0  0
   22.4190    6.2740   -5.0310 N   0  0  0  0  0  0  0  0  0  0  0  0
   22.8880    5.9880   -3.7550 C   0  0  0  0  0  0  0  0  0  0  0  0
   24.1950    6.3120   -3.4050 N   0  0  0  0  0  0  0  0  0  0  0  0
   25.0260    6.9220   -4.3320 C   0  0  0  0  0  0  0  0  0  0  0  0
   22.2670    5.4000   -2.6800 N   0  0  0  0  0  0  0  0  0  0  0  0
   22.4090    4.0060   -2.5260 C   0  0  1  0  0  0  0  0  0  0  0  0
   26.0251    6.0267   -7.5875 H   0  0  0  0  0  0  0  0  0  0  0  0
   26.0416   10.8952   -8.2331 H   0  0  0  0  0  0  0  0  0  0  0  0
   27.6659   10.1789  -10.3088 H   0  0  0  0  0  0  0  0  0  0  0  0
   25.3031   10.6724   -4.4620 H   0  0  0  0  0  0  0  0  0  0  0  0
   26.6122   10.5702   -5.6878 H   0  0  0  0  0  0  0  0  0  0  0  0
   25.4893   11.9722   -5.6878 H   0  0  0  0  0  0  0  0  0  0  0  0
   29.2892    7.2494  -12.0024 H   0  0  0  0  0  0  0  0  0  0  0  0
   31.2513   11.7675  -13.1345 H   0  0  0  0  0  0  0  0  0  0  0  0
   28.5875   12.0775  -13.5099 H   0  0  0  0  0  0  0  0  0  0  0  0
   26.3930    9.9775  -11.7275 H   0  0  0  0  0  0  0  0  0  0  0  0
   26.4302   10.8821  -13.2790 H   0  0  0  0  0  0  0  0  0  0  0  0
   26.5827    9.0923  -13.2790 H   0  0  0  0  0  0  0  0  0  0  0  0
   22.8851    7.1112   -6.9686 H   0  0  0  0  0  0  0  0  0  0  0  0
   26.0591    7.1791   -4.0551 H   0  0  0  0  0  0  0  0  0  0  0  0
   21.7175    5.9575   -2.0106 H   0  0  0  0  0  0  0  0  0  0  0  0
   22.4345    3.7561   -1.4551 H   0  0  0  0  0  0  0  0  0  0  0  0
   21.5582    3.4960   -3.0014 H   0  0  0  0  0  0  0  0  0  0  0  0
   23.3452    3.6781   -3.0014 H   0  0  0  0  0  0  0  0  0  0  0  0
  1  7  1  0
  1  2  2  0
  1  5  1  0
  2  3  1  0
  2 19  1  0
  3  4  1  0
  4  8  2  0
  4  6  1  0
  6 10  1  0
  6  7  2  0
  8  9  1  0
  9 12  1  0
  9 10  2  0
 19 20  2  0
 19 24  1  0
 20 21  1  0
 21 22  2  0
 22 23  1  0
 22 25  1  0
 23 24  2  0
 25 26  1  0
 12 13  1  0
 13 17  1  0
 13 14  2  0
 14 15  1  0
 15 16  2  0
 16 17  1  0
 17 18  1  0
  5 11  1  0
  3 27  1  0
  7 28  1  0
 10 29  1  0
 11 30  1  1
 11 31  1  0
 11 32  1  0
 12 33  1  0
 15 34  1  0
 16 35  1  0
 18 36  1  1
 18 37  1  0
 18 38  1  0
 20 39  1  0
 24 40  1  0
 25 41  1  0
 26 42  1  1
 26 43  1  0
 26 44  1  0
M  END
>  <Pose ID>  (134)
18

>  <Score>  (134)
-6.10278844833374

>  <smiles>  (134)
CNc1ncc(-c2[nH]c3nc(Nc4nccn4C)cc-3cc2OC)cn1

$$$$

     RDKit          3D

 43 46  0  0  0  0  0  0  0  0999 V2000
   25.2770    9.0620   -7.2020 C   0  0  0  0  0  0  0  0  0  0  0  0
   25.2940    7.6770   -7.0710 C   0  0  0  0  0  0  0  0  0  0  0  0
   26.0580    6.9040   -7.9330 N   0  0  0  0  0  0  0  0  0  0  0  0
   26.8130    7.5170   -8.9330 C   0  0  0  0  0  0  0  0  0  0  0  0
   24.6470    9.9750   -6.5170 O   0  0  0  0  0  0  0  0  0  0  0  0
   26.7970    8.8980   -9.0620 C   0  0  0  0  0  0  0  0  0  0  0  0
   26.0330    9.6720   -8.2020 C   0  0  0  0  0  0  0  0  0  0  0  0
   27.6180    6.9880   -9.8680 N   0  0  0  0  0  0  0  0  0  0  0  0
   28.1400    8.0130  -10.6290 C   0  0  0  0  0  0  0  0  0  0  0  0
   27.5290    9.1240  -10.0090 C   0  0  0  0  0  0  0  0  0  0  0  0
   25.4860   10.6570   -5.5950 C   0  0  1  0  0  0  0  0  0  0  0  0
   28.9960    8.1460  -11.6980 N   0  0  0  0  0  0  0  0  0  0  0  0
   29.2870    9.3740  -12.1890 C   0  0  0  0  0  0  0  0  0  0  0  0
   30.6020    9.8930  -12.2620 N   0  0  0  0  0  0  0  0  0  0  0  0
   30.5320   11.1720  -12.8290 C   0  0  0  0  0  0  0  0  0  0  0  0
   29.1310   11.2750  -13.0400 C   0  0  0  0  0  0  0  0  0  0  0  0
   28.3960   10.2040  -12.6700 N   0  0  0  0  0  0  0  0  0  0  0  0
   26.9350   10.0610  -12.8190 C   0  0  1  0  0  0  0  0  0  0  0  0
   24.4750    7.3410   -5.9480 C   0  0  0  0  0  0  0  0  0  0  0  0
   23.1090    7.5810   -6.0410 C   0  0  0  0  0  0  0  0  0  0  0  0
   22.2610    7.1810   -5.0140 C   0  0  0  0  0  0  0  0  0  0  0  0
   22.7810    6.5420   -3.8950 C   0  0  0  0  0  0  0  0  0  0  0  0
   24.1460    6.3010   -3.8020 N   0  0  0  0  0  0  0  0  0  0  0  0
   24.9920    6.6540   -4.8660 C   0  0  0  0  0  0  0  0  0  0  0  0
   20.7790    7.4410   -5.1150 C   0  0  1  0  0  0  0  0  0  0  0  0
   26.0678    5.8787   -7.8348 H   0  0  0  0  0  0  0  0  0  0  0  0
   26.0234   10.7668   -8.3087 H   0  0  0  0  0  0  0  0  0  0  0  0
   27.7062   10.1494  -10.3655 H   0  0  0  0  0  0  0  0  0  0  0  0
   25.1803   10.4085   -4.5680 H   0  0  0  0  0  0  0  0  0  0  0  0
   26.5301   10.3483   -5.7517 H   0  0  0  0  0  0  0  0  0  0  0  0
   25.3971   11.7422   -5.7517 H   0  0  0  0  0  0  0  0  0  0  0  0
   29.4167    7.3090  -12.1261 H   0  0  0  0  0  0  0  0  0  0  0  0
   31.3341   11.8921  -13.0485 H   0  0  0  0  0  0  0  0  0  0  0  0
   28.6721   12.1734  -13.4786 H   0  0  0  0  0  0  0  0  0  0  0  0
   26.4677   10.0153  -11.8242 H   0  0  0  0  0  0  0  0  0  0  0  0
   26.5366   10.9244  -13.3719 H   0  0  0  0  0  0  0  0  0  0  0  0
   26.7115    9.1367  -13.3719 H   0  0  0  0  0  0  0  0  0  0  0  0
   22.6987    8.0874   -6.9271 H   0  0  0  0  0  0  0  0  0  0  0  0
   22.1109    6.2265   -3.0817 H   0  0  0  0  0  0  0  0  0  0  0  0
   26.0584    6.3856   -4.8384 H   0  0  0  0  0  0  0  0  0  0  0  0
   20.3502    7.5162   -4.1048 H   0  0  0  0  0  0  0  0  0  0  0  0
   20.6081    8.3829   -5.6569 H   0  0  0  0  0  0  0  0  0  0  0  0
   20.2977    6.6136   -5.6569 H   0  0  0  0  0  0  0  0  0  0  0  0
  1  7  1  0
  1  2  2  0
  1  5  1  0
  2  3  1  0
  2 19  1  0
  3  4  1  0
  4  8  2  0
  4  6  1  0
  6 10  1  0
  6  7  2  0
  8  9  1  0
  9 12  1  0
  9 10  2  0
 12 13  1  0
 13 17  1  0
 13 14  2  0
 14 15  1  0
 15 16  2  0
 16 17  1  0
 17 18  1  0
 19 20  2  0
 19 24  1  0
 20 21  1  0
 21 25  1  0
 21 22  2  0
 22 23  1  0
 23 24  2  0
  5 11  1  0
  3 26  1  0
  7 27  1  0
 10 28  1  0
 11 29  1  1
 11 30  1  0
 11 31  1  0
 12 32  1  0
 15 33  1  0
 16 34  1  0
 18 35  1  1
 18 36  1  0
 18 37  1  0
 20 38  1  0
 22 39  1  0
 24 40  1  0
 25 41  1  1
 25 42  1  0
 25 43  1  0
M  END
>  <Pose ID>  (135)
58

>  <Score>  (135)
-6.1017608642578125

>  <smiles>  (135)
COc1cc2cc(Nc3nccn3C)nc-2[nH]c1-c1cncc(C)c1

$$$$

     RDKit          3D

 43 46  0  0  0  0  0  0  0  0999 V2000
   25.3010    9.2440   -7.0490 C   0  0  0  0  0  0  0  0  0  0  0  0
   25.3000    7.8630   -6.8680 C   0  0  0  0  0  0  0  0  0  0  0  0
   26.0300    7.0480   -7.7220 N   0  0  0  0  0  0  0  0  0  0  0  0
   26.7670    7.6140   -8.7590 C   0  0  0  0  0  0  0  0  0  0  0  0
   24.7020   10.1910   -6.3800 O   0  0  0  0  0  0  0  0  0  0  0  0
   26.7710    8.9910   -8.9380 C   0  0  0  0  0  0  0  0  0  0  0  0
   26.0390    9.8050   -8.0870 C   0  0  0  0  0  0  0  0  0  0  0  0
   27.5430    7.0400   -9.6980 N   0  0  0  0  0  0  0  0  0  0  0  0
   28.0580    8.0290  -10.5070 C   0  0  0  0  0  0  0  0  0  0  0  0
   27.4810    9.1710   -9.9120 C   0  0  0  0  0  0  0  0  0  0  0  0
   25.5760   10.8910   -5.5050 C   0  0  1  0  0  0  0  0  0  0  0  0
   28.8900    8.1100  -11.5970 N   0  0  0  0  0  0  0  0  0  0  0  0
   29.1880    9.3160  -12.1400 C   0  0  0  0  0  0  0  0  0  0  0  0
   30.5070    9.8100  -12.2670 N   0  0  0  0  0  0  0  0  0  0  0  0
   30.4420   11.0710  -12.8730 C   0  0  0  0  0  0  0  0  0  0  0  0
   29.0410   11.1890  -13.0530 C   0  0  0  0  0  0  0  0  0  0  0  0
   28.2980   10.1420  -12.6280 N   0  0  0  0  0  0  0  0  0  0  0  0
   26.8310   10.0170  -12.7350 C   0  0  1  0  0  0  0  0  0  0  0  0
   24.5620    7.2090   -5.6080 C   0  0  0  0  0  0  0  0  0  0  0  0
   23.2570    6.8840   -5.9580 C   0  0  0  0  0  0  0  0  0  0  0  0
   22.4210    6.2730   -5.0310 N   0  0  0  0  0  0  0  0  0  0  0  0
   22.8900    5.9870   -3.7550 C   0  0  0  0  0  0  0  0  0  0  0  0
   24.1970    6.3110   -3.4050 N   0  0  0  0  0  0  0  0  0  0  0  0
   25.0280    6.9210   -4.3320 C   0  0  0  0  0  0  0  0  0  0  0  0
   21.9830    5.3240   -2.7480 C   0  0  1  0  0  0  0  0  0  0  0  0
   22.7650    4.7690   -1.6830 O   0  0  0  0  0  0  0  0  0  0  0  0
   26.0266    6.0266   -7.5889 H   0  0  0  0  0  0  0  0  0  0  0  0
   26.0416   10.8953   -8.2325 H   0  0  0  0  0  0  0  0  0  0  0  0
   27.6641   10.1800  -10.3101 H   0  0  0  0  0  0  0  0  0  0  0  0
   25.3031   10.6724   -4.4620 H   0  0  0  0  0  0  0  0  0  0  0  0
   26.6122   10.5702   -5.6878 H   0  0  0  0  0  0  0  0  0  0  0  0
   25.4893   11.9722   -5.6878 H   0  0  0  0  0  0  0  0  0  0  0  0
   29.2888    7.2516  -12.0032 H   0  0  0  0  0  0  0  0  0  0  0  0
   31.2491   11.7711  -13.1349 H   0  0  0  0  0  0  0  0  0  0  0  0
   28.5852   12.0792  -13.5111 H   0  0  0  0  0  0  0  0  0  0  0  0
   26.3917    9.9796  -11.7272 H   0  0  0  0  0  0  0  0  0  0  0  0
   26.4278   10.8840  -13.2788 H   0  0  0  0  0  0  0  0  0  0  0  0
   26.5803    9.0942  -13.2788 H   0  0  0  0  0  0  0  0  0  0  0  0
   22.8858    7.1103   -6.9685 H   0  0  0  0  0  0  0  0  0  0  0  0
   26.0612    7.1780   -4.0555 H   0  0  0  0  0  0  0  0  0  0  0  0
   21.2850    6.0692   -2.3387 H   0  0  0  0  0  0  0  0  0  0  0  0
   21.4181    4.5195   -3.2417 H   0  0  0  0  0  0  0  0  0  0  0  0
   22.3794    5.0427   -0.8132 H   0  0  0  0  0  0  0  0  0  0  0  0
  1  7  1  0
  1  2  2  0
  1  5  1  0
  2  3  1  0
  2 19  1  0
  3  4  1  0
  4  8  2  0
  4  6  1  0
  6 10  1  0
  6  7  2  0
  8  9  1  0
  9 12  1  0
  9 10  2  0
 12 13  1  0
 13 17  1  0
 13 14  2  0
 14 15  1  0
 15 16  2  0
 16 17  1  0
 17 18  1  0
 19 20  2  0
 19 24  1  0
 20 21  1  0
 21 22  2  0
 22 23  1  0
 22 25  1  0
 23 24  2  0
 25 26  1  0
  5 11  1  0
  3 27  1  0
  7 28  1  0
 10 29  1  0
 11 30  1  1
 11 31  1  0
 11 32  1  0
 12 33  1  0
 15 34  1  0
 16 35  1  0
 18 36  1  1
 18 37  1  0
 18 38  1  0
 20 39  1  0
 24 40  1  0
 25 41  1  1
 25 42  1  0
 26 43  1  0
M  END
>  <Pose ID>  (136)
16

>  <Score>  (136)
-6.095393657684326

>  <smiles>  (136)
COc1cc2cc(Nc3nccn3C)nc-2[nH]c1-c1cnc(CO)nc1

$$$$

     RDKit          3D

 43 46  0  0  0  0  0  0  0  0999 V2000
   25.2990    9.0660   -7.1570 C   0  0  0  0  0  0  0  0  0  0  0  0
   25.3240    7.6810   -7.0230 C   0  0  0  0  0  0  0  0  0  0  0  0
   26.0790    6.9090   -7.8940 N   0  0  0  0  0  0  0  0  0  0  0  0
   26.8180    7.5230   -8.9050 C   0  0  0  0  0  0  0  0  0  0  0  0
   24.6750    9.9780   -6.4660 O   0  0  0  0  0  0  0  0  0  0  0  0
   26.7950    8.9040   -9.0370 C   0  0  0  0  0  0  0  0  0  0  0  0
   26.0400    9.6760   -8.1680 C   0  0  0  0  0  0  0  0  0  0  0  0
   27.6130    6.9950   -9.8500 N   0  0  0  0  0  0  0  0  0  0  0  0
   28.1200    8.0200  -10.6200 C   0  0  0  0  0  0  0  0  0  0  0  0
   27.5130    9.1300   -9.9940 C   0  0  0  0  0  0  0  0  0  0  0  0
   25.5240   10.6650   -5.5560 C   0  0  1  0  0  0  0  0  0  0  0  0
   28.9610    8.1540  -11.7010 N   0  0  0  0  0  0  0  0  0  0  0  0
   29.2410    9.3820  -12.1980 C   0  0  0  0  0  0  0  0  0  0  0  0
   30.5530    9.9060  -12.2900 N   0  0  0  0  0  0  0  0  0  0  0  0
   30.4700   11.1840  -12.8590 C   0  0  0  0  0  0  0  0  0  0  0  0
   29.0660   11.2810  -13.0510 C   0  0  0  0  0  0  0  0  0  0  0  0
   28.3400   10.2080  -12.6690 N   0  0  0  0  0  0  0  0  0  0  0  0
   26.8780   10.0590  -12.7980 C   0  0  1  0  0  0  0  0  0  0  0  0
   24.5210    7.3440   -5.8890 C   0  0  0  0  0  0  0  0  0  0  0  0
   23.1530    7.5790   -5.9640 C   0  0  0  0  0  0  0  0  0  0  0  0
   22.3210    7.1780   -4.9250 C   0  0  0  0  0  0  0  0  0  0  0  0
   22.8580    6.5430   -3.8110 C   0  0  0  0  0  0  0  0  0  0  0  0
   24.2250    6.3080   -3.7360 N   0  0  0  0  0  0  0  0  0  0  0  0
   25.0550    6.6620   -4.8120 C   0  0  0  0  0  0  0  0  0  0  0  0
   21.9550    6.1090   -2.6830 C   0  0  1  0  0  0  0  0  0  0  0  0
   26.0938    5.8840   -7.7942 H   0  0  0  0  0  0  0  0  0  0  0  0
   26.0255   10.7706   -8.2762 H   0  0  0  0  0  0  0  0  0  0  0  0
   27.6814   10.1552  -10.3553 H   0  0  0  0  0  0  0  0  0  0  0  0
   25.2269   10.4246   -4.5245 H   0  0  0  0  0  0  0  0  0  0  0  0
   26.5660   10.3528   -5.7197 H   0  0  0  0  0  0  0  0  0  0  0  0
   25.4361   11.7492   -5.7197 H   0  0  0  0  0  0  0  0  0  0  0  0
   29.3787    7.3176  -12.1333 H   0  0  0  0  0  0  0  0  0  0  0  0
   31.2661   11.9068  -13.0910 H   0  0  0  0  0  0  0  0  0  0  0  0
   28.5978   12.1768  -13.4850 H   0  0  0  0  0  0  0  0  0  0  0  0
   26.4244   10.0128  -11.7969 H   0  0  0  0  0  0  0  0  0  0  0  0
   26.4687   10.9201  -13.3466 H   0  0  0  0  0  0  0  0  0  0  0  0
   26.6508    9.1330  -13.3466 H   0  0  0  0  0  0  0  0  0  0  0  0
   22.7288    8.0822   -6.8454 H   0  0  0  0  0  0  0  0  0  0  0  0
   21.2383    7.3631   -4.9843 H   0  0  0  0  0  0  0  0  0  0  0  0
   26.1228    6.3983   -4.7978 H   0  0  0  0  0  0  0  0  0  0  0  0
   22.4344    6.3394   -1.7202 H   0  0  0  0  0  0  0  0  0  0  0  0
   20.9970    6.6451   -2.7532 H   0  0  0  0  0  0  0  0  0  0  0  0
   21.7752    5.0261   -2.7532 H   0  0  0  0  0  0  0  0  0  0  0  0
  1  7  1  0
  1  2  2  0
  1  5  1  0
  2  3  1  0
  2 19  1  0
  3  4  1  0
  4  8  2  0
  4  6  1  0
  6 10  1  0
  6  7  2  0
  8  9  1  0
  9 12  1  0
  9 10  2  0
 12 13  1  0
 13 17  1  0
 13 14  2  0
 14 15  1  0
 15 16  2  0
 16 17  1  0
 17 18  1  0
 19 20  2  0
 19 24  1  0
 20 21  1  0
 21 22  2  0
 22 23  1  0
 22 25  1  0
 23 24  2  0
  5 11  1  0
  3 26  1  0
  7 27  1  0
 10 28  1  0
 11 29  1  1
 11 30  1  0
 11 31  1  0
 12 32  1  0
 15 33  1  0
 16 34  1  0
 18 35  1  1
 18 36  1  0
 18 37  1  0
 20 38  1  0
 21 39  1  0
 24 40  1  0
 25 41  1  1
 25 42  1  0
 25 43  1  0
M  END
>  <Pose ID>  (137)
59

>  <Score>  (137)
-6.065761089324951

>  <smiles>  (137)
COc1cc2cc(Nc3nccn3C)nc-2[nH]c1-c1ccc(C)nc1

$$$$

     RDKit          3D

 42 45  0  0  0  0  0  0  0  0999 V2000
   25.3010    9.2440   -7.0490 C   0  0  0  0  0  0  0  0  0  0  0  0
   25.2990    7.8630   -6.8680 C   0  0  0  0  0  0  0  0  0  0  0  0
   26.0290    7.0480   -7.7210 N   0  0  0  0  0  0  0  0  0  0  0  0
   26.7670    7.6130   -8.7580 C   0  0  0  0  0  0  0  0  0  0  0  0
   24.7020   10.1910   -6.3800 O   0  0  0  0  0  0  0  0  0  0  0  0
   26.7710    8.9900   -8.9370 C   0  0  0  0  0  0  0  0  0  0  0  0
   26.0390    9.8050   -8.0870 C   0  0  0  0  0  0  0  0  0  0  0  0
   27.5430    7.0390   -9.6970 N   0  0  0  0  0  0  0  0  0  0  0  0
   28.0590    8.0270  -10.5060 C   0  0  0  0  0  0  0  0  0  0  0  0
   27.4820    9.1700   -9.9110 C   0  0  0  0  0  0  0  0  0  0  0  0
   25.5760   10.8910   -5.5050 C   0  0  1  0  0  0  0  0  0  0  0  0
   28.8910    8.1080  -11.5960 N   0  0  0  0  0  0  0  0  0  0  0  0
   29.1900    9.3140  -12.1390 C   0  0  0  0  0  0  0  0  0  0  0  0
   30.5090    9.8070  -12.2650 N   0  0  0  0  0  0  0  0  0  0  0  0
   30.4440   11.0680  -12.8720 C   0  0  0  0  0  0  0  0  0  0  0  0
   29.0430   11.1870  -13.0520 C   0  0  0  0  0  0  0  0  0  0  0  0
   28.3000   10.1400  -12.6270 N   0  0  0  0  0  0  0  0  0  0  0  0
   26.8330   10.0150  -12.7350 C   0  0  1  0  0  0  0  0  0  0  0  0
   24.5610    7.2100   -5.6080 C   0  0  0  0  0  0  0  0  0  0  0  0
   23.2560    6.8850   -5.9580 C   0  0  0  0  0  0  0  0  0  0  0  0
   22.4190    6.2740   -5.0310 N   0  0  0  0  0  0  0  0  0  0  0  0
   22.8880    5.9880   -3.7550 C   0  0  0  0  0  0  0  0  0  0  0  0
   24.1950    6.3120   -3.4050 N   0  0  0  0  0  0  0  0  0  0  0  0
   25.0260    6.9220   -4.3320 C   0  0  0  0  0  0  0  0  0  0  0  0
   21.9800    5.3260   -2.7480 C   0  0  1  0  0  0  0  0  0  0  0  0
   26.0251    6.0267   -7.5875 H   0  0  0  0  0  0  0  0  0  0  0  0
   26.0416   10.8952   -8.2331 H   0  0  0  0  0  0  0  0  0  0  0  0
   27.6659   10.1789  -10.3088 H   0  0  0  0  0  0  0  0  0  0  0  0
   25.3031   10.6724   -4.4620 H   0  0  0  0  0  0  0  0  0  0  0  0
   26.6122   10.5702   -5.6878 H   0  0  0  0  0  0  0  0  0  0  0  0
   25.4893   11.9722   -5.6878 H   0  0  0  0  0  0  0  0  0  0  0  0
   29.2892    7.2494  -12.0024 H   0  0  0  0  0  0  0  0  0  0  0  0
   31.2513   11.7675  -13.1345 H   0  0  0  0  0  0  0  0  0  0  0  0
   28.5875   12.0775  -13.5099 H   0  0  0  0  0  0  0  0  0  0  0  0
   26.3930    9.9775  -11.7275 H   0  0  0  0  0  0  0  0  0  0  0  0
   26.4302   10.8821  -13.2790 H   0  0  0  0  0  0  0  0  0  0  0  0
   26.5827    9.0923  -13.2790 H   0  0  0  0  0  0  0  0  0  0  0  0
   22.8851    7.1112   -6.9686 H   0  0  0  0  0  0  0  0  0  0  0  0
   26.0591    7.1791   -4.0551 H   0  0  0  0  0  0  0  0  0  0  0  0
   22.3186    5.5729   -1.7310 H   0  0  0  0  0  0  0  0  0  0  0  0
   20.9506    5.6870   -2.8895 H   0  0  0  0  0  0  0  0  0  0  0  0
   22.0088    4.2355   -2.8895 H   0  0  0  0  0  0  0  0  0  0  0  0
  1  7  1  0
  1  2  2  0
  1  5  1  0
  2  3  1  0
  2 19  1  0
  3  4  1  0
  4  8  2  0
  4  6  1  0
  6 10  1  0
  6  7  2  0
  8  9  1  0
  9 12  1  0
  9 10  2  0
 12 13  1  0
 13 17  1  0
 13 14  2  0
 14 15  1  0
 15 16  2  0
 16 17  1  0
 17 18  1  0
 19 20  2  0
 19 24  1  0
 20 21  1  0
 21 22  2  0
 22 23  1  0
 22 25  1  0
 23 24  2  0
  5 11  1  0
  3 26  1  0
  7 27  1  0
 10 28  1  0
 11 29  1  1
 11 30  1  0
 11 31  1  0
 12 32  1  0
 15 33  1  0
 16 34  1  0
 18 35  1  1
 18 36  1  0
 18 37  1  0
 20 38  1  0
 24 39  1  0
 25 40  1  1
 25 41  1  0
 25 42  1  0
M  END
>  <Pose ID>  (138)
15

>  <Score>  (138)
-6.046522617340088

>  <smiles>  (138)
COc1cc2cc(Nc3nccn3C)nc-2[nH]c1-c1cnc(C)nc1

$$$$

     RDKit          3D

 34 36  0  0  0  0  0  0  0  0999 V2000
   25.1500    9.2500   -7.0050 C   0  0  0  0  0  0  0  0  0  0  0  0
   25.0330    7.8740   -6.8270 C   0  0  0  0  0  0  0  0  0  0  0  0
   25.7210    7.0030   -7.6610 N   0  0  0  0  0  0  0  0  0  0  0  0
   26.5330    7.5090   -8.6740 C   0  0  0  0  0  0  0  0  0  0  0  0
   24.6090   10.2410   -6.3520 O   0  0  0  0  0  0  0  0  0  0  0  0
   26.6510    8.8790   -8.8490 C   0  0  0  0  0  0  0  0  0  0  0  0
   25.9620    9.7510   -8.0180 C   0  0  0  0  0  0  0  0  0  0  0  0
   27.2870    6.8740   -9.5900 N   0  0  0  0  0  0  0  0  0  0  0  0
   27.9040    7.8190  -10.3800 C   0  0  0  0  0  0  0  0  0  0  0  0
   27.4020    9.0030   -9.8000 C   0  0  0  0  0  0  0  0  0  0  0  0
   25.5090   10.8700   -5.4480 C   0  0  1  0  0  0  0  0  0  0  0  0
   28.7710    7.8340  -11.4470 N   0  0  0  0  0  0  0  0  0  0  0  0
   29.1810    9.0110  -11.9780 C   0  0  0  0  0  0  0  0  0  0  0  0
   30.5400    9.3990  -12.0620 N   0  0  0  0  0  0  0  0  0  0  0  0
   30.5910   10.6610  -12.6700 C   0  0  0  0  0  0  0  0  0  0  0  0
   29.2100   10.8910  -12.8910 C   0  0  0  0  0  0  0  0  0  0  0  0
   28.3730    9.9070  -12.4890 N   0  0  0  0  0  0  0  0  0  0  0  0
   26.9060    9.8990  -12.6410 C   0  0  1  0  0  0  0  0  0  0  0  0
   24.1570    7.3280   -5.7270 C   0  0  1  0  0  0  0  0  0  0  0  0
   25.6314    5.9851   -7.5312 H   0  0  0  0  0  0  0  0  0  0  0  0
   26.0576   10.8376   -8.1599 H   0  0  0  0  0  0  0  0  0  0  0  0
   27.6767    9.9944  -10.1894 H   0  0  0  0  0  0  0  0  0  0  0  0
   25.2007   10.6545   -4.4143 H   0  0  0  0  0  0  0  0  0  0  0  0
   26.5257   10.4848   -5.6153 H   0  0  0  0  0  0  0  0  0  0  0  0
   25.4967   11.9571   -5.6153 H   0  0  0  0  0  0  0  0  0  0  0  0
   29.1103    6.9464  -11.8444 H   0  0  0  0  0  0  0  0  0  0  0  0
   31.4583   11.2943  -12.9084 H   0  0  0  0  0  0  0  0  0  0  0  0
   28.8408   11.8143  -13.3613 H   0  0  0  0  0  0  0  0  0  0  0  0
   26.4344    9.8964  -11.6472 H   0  0  0  0  0  0  0  0  0  0  0  0
   26.5898   10.7954  -13.1946 H   0  0  0  0  0  0  0  0  0  0  0  0
   26.5996    8.9992  -13.1946 H   0  0  0  0  0  0  0  0  0  0  0  0
   24.5859    7.5953   -4.7500 H   0  0  0  0  0  0  0  0  0  0  0  0
   23.1481    7.7575   -5.8145 H   0  0  0  0  0  0  0  0  0  0  0  0
   24.0982    6.2331   -5.8145 H   0  0  0  0  0  0  0  0  0  0  0  0
  1  7  1  0
  1  2  2  0
  1  5  1  0
  2  3  1  0
  2 19  1  0
  3  4  1  0
  4  8  2  0
  4  6  1  0
  6 10  1  0
  6  7  2  0
  8  9  1  0
  9 12  1  0
  9 10  2  0
 12 13  1  0
 13 17  1  0
 13 14  2  0
 14 15  1  0
 15 16  2  0
 16 17  1  0
 17 18  1  0
  5 11  1  0
  3 20  1  0
  7 21  1  0
 10 22  1  0
 11 23  1  1
 11 24  1  0
 11 25  1  0
 12 26  1  0
 15 27  1  0
 16 28  1  0
 18 29  1  1
 18 30  1  0
 18 31  1  0
 19 32  1  1
 19 33  1  0
 19 34  1  0
M  END
>  <Pose ID>  (139)
1

>  <Score>  (139)
-6.0152692794799805

>  <smiles>  (139)
COc1cc2cc(Nc3nccn3C)nc-2[nH]c1C

$$$$

     RDKit          3D

 51 55  0  0  0  0  0  0  0  0999 V2000
   25.2940    9.2360   -7.0540 C   0  0  0  0  0  0  0  0  0  0  0  0
   25.2800    7.8540   -6.8800 C   0  0  0  0  0  0  0  0  0  0  0  0
   26.0070    7.0370   -7.7370 N   0  0  0  0  0  0  0  0  0  0  0  0
   26.7520    7.6030   -8.7680 C   0  0  0  0  0  0  0  0  0  0  0  0
   24.7010   10.1840   -6.3820 O   0  0  0  0  0  0  0  0  0  0  0  0
   26.7680    8.9800   -8.9390 C   0  0  0  0  0  0  0  0  0  0  0  0
   26.0400    9.7960   -8.0870 C   0  0  0  0  0  0  0  0  0  0  0  0
   27.5260    7.0270   -9.7080 N   0  0  0  0  0  0  0  0  0  0  0  0
   28.0520    8.0160  -10.5100 C   0  0  0  0  0  0  0  0  0  0  0  0
   27.4830    9.1600   -9.9100 C   0  0  0  0  0  0  0  0  0  0  0  0
   25.5780   10.8720   -5.5000 C   0  0  1  0  0  0  0  0  0  0  0  0
   28.8880    8.0960  -11.5980 N   0  0  0  0  0  0  0  0  0  0  0  0
   29.1980    9.3020  -12.1330 C   0  0  0  0  0  0  0  0  0  0  0  0
   30.5210    9.7860  -12.2530 N   0  0  0  0  0  0  0  0  0  0  0  0
   30.4680   11.0510  -12.8530 C   0  0  0  0  0  0  0  0  0  0  0  0
   29.0670   11.1820  -13.0350 C   0  0  0  0  0  0  0  0  0  0  0  0
   28.3160   10.1380  -12.6180 N   0  0  0  0  0  0  0  0  0  0  0  0
   26.8490   10.0260  -12.7310 C   0  0  1  0  0  0  0  0  0  0  0  0
   24.5340    7.1990   -5.6270 C   0  0  0  0  0  0  0  0  0  0  0  0
   23.2270    6.8870   -5.9820 C   0  0  0  0  0  0  0  0  0  0  0  0
   22.3830    6.2780   -5.0610 N   0  0  0  0  0  0  0  0  0  0  0  0
   22.8460    5.9800   -3.7860 C   0  0  0  0  0  0  0  0  0  0  0  0
   24.1560    6.2920   -3.4300 N   0  0  0  0  0  0  0  0  0  0  0  0
   24.9930    6.9000   -4.3510 C   0  0  0  0  0  0  0  0  0  0  0  0
   22.2180    5.3920   -2.7160 N   0  0  0  0  0  0  0  0  0  0  0  0
   22.3050    4.0000   -2.5040 C   0  0  2  0  0  0  0  0  0  0  0  0
   21.0430    3.5340   -1.6920 C   0  0  1  0  0  0  0  0  0  0  0  0
   22.0170    2.6960   -0.8060 C   0  0  1  0  0  0  0  0  0  0  0  0
   23.1340    3.4890   -1.4140 C   0  0  1  0  0  0  0  0  0  0  0  0
   25.9948    6.0150   -7.6099 H   0  0  0  0  0  0  0  0  0  0  0  0
   26.0519   10.8869   -8.2275 H   0  0  0  0  0  0  0  0  0  0  0  0
   27.6762   10.1697  -10.3014 H   0  0  0  0  0  0  0  0  0  0  0  0
   25.2979   10.6523   -4.4592 H   0  0  0  0  0  0  0  0  0  0  0  0
   26.6118   10.5414   -5.6791 H   0  0  0  0  0  0  0  0  0  0  0  0
   25.5030   11.9547   -5.6791 H   0  0  0  0  0  0  0  0  0  0  0  0
   29.2802    7.2365  -12.0082 H   0  0  0  0  0  0  0  0  0  0  0  0
   31.2815   11.7454  -13.1100 H   0  0  0  0  0  0  0  0  0  0  0  0
   28.6190   12.0787  -13.4880 H   0  0  0  0  0  0  0  0  0  0  0  0
   26.4053    9.9921  -11.7250 H   0  0  0  0  0  0  0  0  0  0  0  0
   26.4557   10.8967  -13.2761 H   0  0  0  0  0  0  0  0  0  0  0  0
   26.5924    9.1057  -13.2761 H   0  0  0  0  0  0  0  0  0  0  0  0
   22.8605    7.1221   -6.9921 H   0  0  0  0  0  0  0  0  0  0  0  0
   26.0273    7.1474   -4.0700 H   0  0  0  0  0  0  0  0  0  0  0  0
   21.6771    5.9739   -2.0605 H   0  0  0  0  0  0  0  0  0  0  0  0
   22.5777    3.6880   -3.5230 H   0  0  0  0  0  0  0  0  0  0  0  0
   20.5152    4.3394   -1.1602 H   0  0  0  0  0  0  0  0  0  0  0  0
   20.1700    3.0808   -2.1845 H   0  0  0  0  0  0  0  0  0  0  0  0
   21.8896    2.8368    0.2775 H   0  0  0  0  0  0  0  0  0  0  0  0
   22.0120    1.5961   -0.8167 H   0  0  0  0  0  0  0  0  0  0  0  0
   23.9710    2.8650   -1.7607 H   0  0  0  0  0  0  0  0  0  0  0  0
   23.6680    4.2119   -0.7797 H   0  0  0  0  0  0  0  0  0  0  0  0
  1  7  1  0
  1  2  2  0
  1  5  1  0
  2  3  1  0
  2 19  1  0
  3  4  1  0
  4  8  2  0
  4  6  1  0
  6 10  1  0
  6  7  2  0
  8  9  1  0
  9 12  1  0
  9 10  2  0
 12 13  1  0
 13 17  1  0
 13 14  2  0
 14 15  1  0
 15 16  2  0
 16 17  1  0
 17 18  1  0
 19 20  2  0
 19 24  1  0
 20 21  1  0
 21 22  2  0
 22 23  1  0
 22 25  1  0
 23 24  2  0
 25 26  1  0
 26 27  1  0
 26 29  1  0
 27 28  1  0
 28 29  1  0
  5 11  1  0
  3 30  1  0
  7 31  1  0
 10 32  1  0
 11 33  1  1
 11 34  1  0
 11 35  1  0
 12 36  1  0
 15 37  1  0
 16 38  1  0
 18 39  1  1
 18 40  1  0
 18 41  1  0
 20 42  1  0
 24 43  1  0
 25 44  1  0
 26 45  1  6
 27 46  1  1
 27 47  1  0
 28 48  1  1
 28 49  1  0
 29 50  1  6
 29 51  1  0
M  END
>  <Pose ID>  (140)
19

>  <Score>  (140)
-5.965761184692383

>  <smiles>  (140)
COc1cc2cc(Nc3nccn3C)nc-2[nH]c1-c1cnc(NC2CCC2)nc1

$$$$

     RDKit          3D

 40 43  0  0  0  0  0  0  0  0999 V2000
   25.2810    9.0640   -7.1760 C   0  0  0  0  0  0  0  0  0  0  0  0
   25.3040    7.6790   -7.0430 C   0  0  0  0  0  0  0  0  0  0  0  0
   26.0640    6.9070   -7.9100 N   0  0  0  0  0  0  0  0  0  0  0  0
   26.8100    7.5210   -8.9150 C   0  0  0  0  0  0  0  0  0  0  0  0
   24.6530    9.9760   -6.4880 O   0  0  0  0  0  0  0  0  0  0  0  0
   26.7890    8.9030   -9.0460 C   0  0  0  0  0  0  0  0  0  0  0  0
   26.0290    9.6740   -8.1810 C   0  0  0  0  0  0  0  0  0  0  0  0
   27.6110    6.9940   -9.8560 N   0  0  0  0  0  0  0  0  0  0  0  0
   28.1240    8.0190  -10.6210 C   0  0  0  0  0  0  0  0  0  0  0  0
   27.5130    9.1290   -9.9980 C   0  0  0  0  0  0  0  0  0  0  0  0
   25.4970   10.6610   -5.5720 C   0  0  1  0  0  0  0  0  0  0  0  0
   28.9720    8.1530  -11.6970 N   0  0  0  0  0  0  0  0  0  0  0  0
   29.2560    9.3810  -12.1910 C   0  0  0  0  0  0  0  0  0  0  0  0
   30.5690    9.9040  -12.2740 N   0  0  0  0  0  0  0  0  0  0  0  0
   30.4910   11.1830  -12.8420 C   0  0  0  0  0  0  0  0  0  0  0  0
   29.0880   11.2810  -13.0430 C   0  0  0  0  0  0  0  0  0  0  0  0
   28.3590   10.2090  -12.6670 N   0  0  0  0  0  0  0  0  0  0  0  0
   26.8970   10.0610  -12.8060 C   0  0  1  0  0  0  0  0  0  0  0  0
   24.4930    7.3420   -5.9150 C   0  0  0  0  0  0  0  0  0  0  0  0
   23.1260    7.5780   -5.9980 C   0  0  0  0  0  0  0  0  0  0  0  0
   22.2870    7.1770   -4.9650 C   0  0  0  0  0  0  0  0  0  0  0  0
   22.8160    6.5400   -3.8480 C   0  0  0  0  0  0  0  0  0  0  0  0
   24.1820    6.3040   -3.7640 N   0  0  0  0  0  0  0  0  0  0  0  0
   25.0200    6.6580   -4.8350 C   0  0  0  0  0  0  0  0  0  0  0  0
   20.5260    7.4790   -5.0720 Cl  0  0  0  0  0  0  0  0  0  0  0  0
   26.0770    5.8818   -7.8112 H   0  0  0  0  0  0  0  0  0  0  0  0
   26.0162   10.7687   -8.2878 H   0  0  0  0  0  0  0  0  0  0  0  0
   27.6840   10.1544  -10.3577 H   0  0  0  0  0  0  0  0  0  0  0  0
   25.1958   10.4165   -4.5427 H   0  0  0  0  0  0  0  0  0  0  0  0
   26.5401   10.3509   -5.7322 H   0  0  0  0  0  0  0  0  0  0  0  0
   25.4082   11.7456   -5.7322 H   0  0  0  0  0  0  0  0  0  0  0  0
   29.3916    7.3166  -12.1275 H   0  0  0  0  0  0  0  0  0  0  0  0
   31.2891   11.9055  -13.0679 H   0  0  0  0  0  0  0  0  0  0  0  0
   28.6233   12.1775  -13.4793 H   0  0  0  0  0  0  0  0  0  0  0  0
   26.4367   10.0144  -11.8080 H   0  0  0  0  0  0  0  0  0  0  0  0
   26.4919   10.9227  -13.3568 H   0  0  0  0  0  0  0  0  0  0  0  0
   26.6729    9.1356  -13.3568 H   0  0  0  0  0  0  0  0  0  0  0  0
   22.7078    8.0824   -6.8816 H   0  0  0  0  0  0  0  0  0  0  0  0
   22.1521    6.2228   -3.0303 H   0  0  0  0  0  0  0  0  0  0  0  0
   26.0874    6.3929   -4.8144 H   0  0  0  0  0  0  0  0  0  0  0  0
  1  7  1  0
  1  2  2  0
  1  5  1  0
  2  3  1  0
  2 19  1  0
  3  4  1  0
  4  8  2  0
  4  6  1  0
  6 10  1  0
  6  7  2  0
  8  9  1  0
  9 12  1  0
  9 10  2  0
 12 13  1  0
 13 17  1  0
 13 14  2  0
 14 15  1  0
 15 16  2  0
 16 17  1  0
 17 18  1  0
 19 20  2  0
 19 24  1  0
 20 21  1  0
 21 25  1  0
 21 22  2  0
 22 23  1  0
 23 24  2  0
  5 11  1  0
  3 26  1  0
  7 27  1  0
 10 28  1  0
 11 29  1  1
 11 30  1  0
 11 31  1  0
 12 32  1  0
 15 33  1  0
 16 34  1  0
 18 35  1  1
 18 36  1  0
 18 37  1  0
 20 38  1  0
 22 39  1  0
 24 40  1  0
M  END
>  <Pose ID>  (141)
60

>  <Score>  (141)
-5.947261333465576

>  <smiles>  (141)
COc1cc2cc(Nc3nccn3C)nc-2[nH]c1-c1cncc(Cl)c1

$$$$

     RDKit          3D

 41 44  0  0  0  0  0  0  0  0999 V2000
   25.2990    9.0660   -7.1570 C   0  0  0  0  0  0  0  0  0  0  0  0
   25.3240    7.6810   -7.0230 C   0  0  0  0  0  0  0  0  0  0  0  0
   26.0790    6.9090   -7.8940 N   0  0  0  0  0  0  0  0  0  0  0  0
   26.8180    7.5230   -8.9050 C   0  0  0  0  0  0  0  0  0  0  0  0
   24.6750    9.9780   -6.4660 O   0  0  0  0  0  0  0  0  0  0  0  0
   26.7950    8.9040   -9.0370 C   0  0  0  0  0  0  0  0  0  0  0  0
   26.0400    9.6760   -8.1680 C   0  0  0  0  0  0  0  0  0  0  0  0
   27.6130    6.9950   -9.8500 N   0  0  0  0  0  0  0  0  0  0  0  0
   28.1200    8.0200  -10.6200 C   0  0  0  0  0  0  0  0  0  0  0  0
   27.5130    9.1300   -9.9940 C   0  0  0  0  0  0  0  0  0  0  0  0
   25.5240   10.6650   -5.5560 C   0  0  1  0  0  0  0  0  0  0  0  0
   28.9610    8.1540  -11.7010 N   0  0  0  0  0  0  0  0  0  0  0  0
   29.2410    9.3820  -12.1980 C   0  0  0  0  0  0  0  0  0  0  0  0
   30.5530    9.9060  -12.2900 N   0  0  0  0  0  0  0  0  0  0  0  0
   30.4700   11.1840  -12.8590 C   0  0  0  0  0  0  0  0  0  0  0  0
   29.0660   11.2810  -13.0510 C   0  0  0  0  0  0  0  0  0  0  0  0
   28.3400   10.2080  -12.6690 N   0  0  0  0  0  0  0  0  0  0  0  0
   26.8780   10.0590  -12.7980 C   0  0  1  0  0  0  0  0  0  0  0  0
   24.5210    7.3440   -5.8890 C   0  0  0  0  0  0  0  0  0  0  0  0
   23.1530    7.5790   -5.9640 C   0  0  0  0  0  0  0  0  0  0  0  0
   22.3210    7.1780   -4.9250 C   0  0  0  0  0  0  0  0  0  0  0  0
   22.8580    6.5430   -3.8110 C   0  0  0  0  0  0  0  0  0  0  0  0
   24.2250    6.3080   -3.7360 N   0  0  0  0  0  0  0  0  0  0  0  0
   25.0550    6.6620   -4.8120 C   0  0  0  0  0  0  0  0  0  0  0  0
   20.9790    7.4070   -4.9980 O   0  0  0  0  0  0  0  0  0  0  0  0
   26.0938    5.8840   -7.7942 H   0  0  0  0  0  0  0  0  0  0  0  0
   26.0255   10.7706   -8.2762 H   0  0  0  0  0  0  0  0  0  0  0  0
   27.6814   10.1552  -10.3553 H   0  0  0  0  0  0  0  0  0  0  0  0
   25.2269   10.4246   -4.5245 H   0  0  0  0  0  0  0  0  0  0  0  0
   26.5660   10.3528   -5.7197 H   0  0  0  0  0  0  0  0  0  0  0  0
   25.4361   11.7492   -5.7197 H   0  0  0  0  0  0  0  0  0  0  0  0
   29.3787    7.3176  -12.1333 H   0  0  0  0  0  0  0  0  0  0  0  0
   31.2661   11.9068  -13.0910 H   0  0  0  0  0  0  0  0  0  0  0  0
   28.5978   12.1768  -13.4850 H   0  0  0  0  0  0  0  0  0  0  0  0
   26.4244   10.0128  -11.7969 H   0  0  0  0  0  0  0  0  0  0  0  0
   26.4687   10.9201  -13.3466 H   0  0  0  0  0  0  0  0  0  0  0  0
   26.6508    9.1330  -13.3466 H   0  0  0  0  0  0  0  0  0  0  0  0
   22.7288    8.0822   -6.8454 H   0  0  0  0  0  0  0  0  0  0  0  0
   22.1999    6.2264   -2.9884 H   0  0  0  0  0  0  0  0  0  0  0  0
   26.1228    6.3983   -4.7978 H   0  0  0  0  0  0  0  0  0  0  0  0
   20.3871    7.1212   -4.2577 H   0  0  0  0  0  0  0  0  0  0  0  0
  1  7  1  0
  1  2  2  0
  1  5  1  0
  2  3  1  0
  2 19  1  0
  3  4  1  0
  4  8  2  0
  4  6  1  0
  6 10  1  0
  6  7  2  0
  8  9  1  0
  9 12  1  0
  9 10  2  0
 12 13  1  0
 13 17  1  0
 13 14  2  0
 14 15  1  0
 15 16  2  0
 16 17  1  0
 17 18  1  0
 19 20  2  0
 19 24  1  0
 20 21  1  0
 21 25  1  0
 21 22  2  0
 22 23  1  0
 23 24  2  0
  5 11  1  0
  3 26  1  0
  7 27  1  0
 10 28  1  0
 11 29  1  1
 11 30  1  0
 11 31  1  0
 12 32  1  0
 15 33  1  0
 16 34  1  0
 18 35  1  1
 18 36  1  0
 18 37  1  0
 20 38  1  0
 22 39  1  0
 24 40  1  0
 25 41  1  0
M  END
>  <Pose ID>  (142)
61

>  <Score>  (142)
-5.908350467681885

>  <smiles>  (142)
COc1cc2cc(Nc3nccn3C)nc-2[nH]c1-c1cncc(O)c1

$$$$

     RDKit          3D

 55 58  0  0  0  0  0  0  0  0999 V2000
   25.3180    8.9220   -6.9810 C   0  0  0  0  0  0  0  0  0  0  0  0
   25.3610    7.5340   -6.8650 C   0  0  0  0  0  0  0  0  0  0  0  0
   26.0940    6.7820   -7.7700 N   0  0  0  0  0  0  0  0  0  0  0  0
   26.7900    7.4160   -8.7960 C   0  0  0  0  0  0  0  0  0  0  0  0
   24.7080    9.8190   -6.2570 O   0  0  0  0  0  0  0  0  0  0  0  0
   26.7500    8.7970   -8.9130 C   0  0  0  0  0  0  0  0  0  0  0  0
   26.0160    9.5510   -8.0080 C   0  0  0  0  0  0  0  0  0  0  0  0
   27.5590    6.9090   -9.7790 N   0  0  0  0  0  0  0  0  0  0  0  0
   28.0260    7.9480  -10.5520 C   0  0  0  0  0  0  0  0  0  0  0  0
   27.4270    9.0440   -9.8940 C   0  0  0  0  0  0  0  0  0  0  0  0
   25.5810   10.5060   -5.3700 C   0  0  1  0  0  0  0  0  0  0  0  0
   28.8270    8.1020  -11.6580 N   0  0  0  0  0  0  0  0  0  0  0  0
   29.0760    9.3400  -12.1530 C   0  0  0  0  0  0  0  0  0  0  0  0
   30.3790    9.8800  -12.2880 N   0  0  0  0  0  0  0  0  0  0  0  0
   30.2590   11.1640  -12.8360 C   0  0  0  0  0  0  0  0  0  0  0  0
   28.8510   11.2460  -12.9770 C   0  0  0  0  0  0  0  0  0  0  0  0
   28.1480   10.1600  -12.5820 N   0  0  0  0  0  0  0  0  0  0  0  0
   26.6850    9.9940  -12.6620 C   0  0  1  0  0  0  0  0  0  0  0  0
   24.7760    6.6930   -5.9520 N   0  0  0  0  0  0  0  0  0  0  0  0
   23.9950    7.3240   -4.8400 C   0  0  1  0  0  0  0  0  0  0  0  0
   23.0940    6.2380   -4.2350 C   0  0  0  0  0  0  0  0  0  0  0  0
   23.5670    5.1870   -3.9000 O   0  0  0  0  0  0  0  0  0  0  0  0
   21.7550    6.5070   -4.0710 N   0  0  0  0  0  0  0  0  0  0  0  0
   21.1150    7.3730   -4.9290 C   0  0  0  0  0  0  0  0  0  0  0  0
   20.9320    5.5410   -3.3110 C   0  0  1  0  0  0  0  0  0  0  0  0
   20.4030    6.1900   -2.0370 C   0  0  1  0  0  0  0  0  0  0  0  0
   19.6430    7.7320   -4.5350 C   0  0  1  0  0  0  0  0  0  0  0  0
   19.4280    8.3220   -3.1460 C   0  0  1  0  0  0  0  0  0  0  0  0
   20.5270    7.9230   -2.1150 C   0  0  1  0  0  0  0  0  0  0  0  0
   21.4140    7.7090   -6.0410 O   0  0  0  0  0  0  0  0  0  0  0  0
   26.1237    5.7561   -7.6836 H   0  0  0  0  0  0  0  0  0  0  0  0
   25.9858   10.6465   -8.1024 H   0  0  0  0  0  0  0  0  0  0  0  0
   27.5658   10.0749  -10.2517 H   0  0  0  0  0  0  0  0  0  0  0  0
   25.2976   10.2830   -4.3308 H   0  0  0  0  0  0  0  0  0  0  0  0
   26.6159   10.1775   -5.5464 H   0  0  0  0  0  0  0  0  0  0  0  0
   25.5050   11.5891   -5.5464 H   0  0  0  0  0  0  0  0  0  0  0  0
   29.2395    7.2748  -12.1124 H   0  0  0  0  0  0  0  0  0  0  0  0
   31.0373   11.9001  -13.0860 H   0  0  0  0  0  0  0  0  0  0  0  0
   28.3584   12.1413  -13.3842 H   0  0  0  0  0  0  0  0  0  0  0  0
   26.2653    9.9464  -11.6463 H   0  0  0  0  0  0  0  0  0  0  0  0
   26.2479   10.8483  -13.1997 H   0  0  0  0  0  0  0  0  0  0  0  0
   26.4504    9.0635  -13.1997 H   0  0  0  0  0  0  0  0  0  0  0  0
   24.8700    5.6701   -6.0281 H   0  0  0  0  0  0  0  0  0  0  0  0
   24.6809    7.7132   -4.0731 H   0  0  0  0  0  0  0  0  0  0  0  0
   23.3912    8.1623   -5.2177 H   0  0  0  0  0  0  0  0  0  0  0  0
   20.0845    5.2169   -3.9329 H   0  0  0  0  0  0  0  0  0  0  0  0
   21.5526    4.6736   -3.0417 H   0  0  0  0  0  0  0  0  0  0  0  0
   19.3471    5.9115   -1.9043 H   0  0  0  0  0  0  0  0  0  0  0  0
   21.0074    5.8356   -1.1890 H   0  0  0  0  0  0  0  0  0  0  0  0
   19.2710    8.4627   -5.2682 H   0  0  0  0  0  0  0  0  0  0  0  0
   19.1050    6.7726   -4.5268 H   0  0  0  0  0  0  0  0  0  0  0  0
   19.4162    9.4185   -3.2332 H   0  0  0  0  0  0  0  0  0  0  0  0
   18.4758    7.9187   -2.7709 H   0  0  0  0  0  0  0  0  0  0  0  0
   20.3272    8.3758   -1.1327 H   0  0  0  0  0  0  0  0  0  0  0  0
   21.5307    8.2675   -2.4047 H   0  0  0  0  0  0  0  0  0  0  0  0
  1  7  1  0
  1  2  2  0
  1  5  1  0
  2  3  1  0
  2 19  1  0
  3  4  1  0
  4  8  2  0
  4  6  1  0
  6 10  1  0
  6  7  2  0
  8  9  1  0
  9 12  1  0
  9 10  2  0
 12 13  1  0
 13 17  1  0
 13 14  2  0
 14 15  1  0
 15 16  2  0
 16 17  1  0
 17 18  1  0
  5 11  1  0
 19 20  1  0
 20 21  1  0
 21 23  1  0
 21 22  2  0
 23 24  1  0
 23 25  1  0
 24 30  2  0
 24 27  1  0
 25 26  1  0
 26 29  1  0
 27 28  1  0
 28 29  1  0
  3 31  1  0
  7 32  1  0
 10 33  1  0
 11 34  1  1
 11 35  1  0
 11 36  1  0
 12 37  1  0
 15 38  1  0
 16 39  1  0
 18 40  1  1
 18 41  1  0
 18 42  1  0
 19 43  1  0
 20 44  1  1
 20 45  1  0
 25 46  1  6
 25 47  1  0
 26 48  1  1
 26 49  1  0
 27 50  1  6
 27 51  1  0
 28 52  1  6
 28 53  1  0
 29 54  1  1
 29 55  1  0
M  END
>  <Pose ID>  (143)
65

>  <Score>  (143)
-5.819897174835205

>  <smiles>  (143)
COc1cc2cc(Nc3nccn3C)nc-2[nH]c1NCC(=O)N1CCCCCC1=O

$$$$

     RDKit          3D

 39 42  0  0  0  0  0  0  0  0999 V2000
   25.3010    9.2440   -7.0490 C   0  0  0  0  0  0  0  0  0  0  0  0
   25.2990    7.8630   -6.8680 C   0  0  0  0  0  0  0  0  0  0  0  0
   26.0290    7.0480   -7.7210 N   0  0  0  0  0  0  0  0  0  0  0  0
   26.7670    7.6130   -8.7580 C   0  0  0  0  0  0  0  0  0  0  0  0
   24.7020   10.1910   -6.3800 O   0  0  0  0  0  0  0  0  0  0  0  0
   26.7710    8.9900   -8.9370 C   0  0  0  0  0  0  0  0  0  0  0  0
   26.0390    9.8050   -8.0870 C   0  0  0  0  0  0  0  0  0  0  0  0
   27.5430    7.0390   -9.6970 N   0  0  0  0  0  0  0  0  0  0  0  0
   28.0590    8.0270  -10.5060 C   0  0  0  0  0  0  0  0  0  0  0  0
   27.4820    9.1700   -9.9110 C   0  0  0  0  0  0  0  0  0  0  0  0
   25.5760   10.8910   -5.5050 C   0  0  1  0  0  0  0  0  0  0  0  0
   28.8910    8.1080  -11.5960 N   0  0  0  0  0  0  0  0  0  0  0  0
   29.1900    9.3140  -12.1390 C   0  0  0  0  0  0  0  0  0  0  0  0
   30.5090    9.8070  -12.2650 N   0  0  0  0  0  0  0  0  0  0  0  0
   30.4440   11.0680  -12.8720 C   0  0  0  0  0  0  0  0  0  0  0  0
   29.0430   11.1870  -13.0520 C   0  0  0  0  0  0  0  0  0  0  0  0
   28.3000   10.1400  -12.6270 N   0  0  0  0  0  0  0  0  0  0  0  0
   26.8330   10.0150  -12.7350 C   0  0  1  0  0  0  0  0  0  0  0  0
   24.5610    7.2100   -5.6080 C   0  0  0  0  0  0  0  0  0  0  0  0
   23.2560    6.8850   -5.9580 C   0  0  0  0  0  0  0  0  0  0  0  0
   22.4190    6.2740   -5.0310 N   0  0  0  0  0  0  0  0  0  0  0  0
   22.8880    5.9880   -3.7550 C   0  0  0  0  0  0  0  0  0  0  0  0
   24.1950    6.3120   -3.4050 N   0  0  0  0  0  0  0  0  0  0  0  0
   25.0260    6.9220   -4.3320 C   0  0  0  0  0  0  0  0  0  0  0  0
   26.0251    6.0267   -7.5875 H   0  0  0  0  0  0  0  0  0  0  0  0
   26.0416   10.8952   -8.2331 H   0  0  0  0  0  0  0  0  0  0  0  0
   27.6659   10.1789  -10.3088 H   0  0  0  0  0  0  0  0  0  0  0  0
   25.3031   10.6724   -4.4620 H   0  0  0  0  0  0  0  0  0  0  0  0
   26.6122   10.5702   -5.6878 H   0  0  0  0  0  0  0  0  0  0  0  0
   25.4893   11.9722   -5.6878 H   0  0  0  0  0  0  0  0  0  0  0  0
   29.2892    7.2494  -12.0024 H   0  0  0  0  0  0  0  0  0  0  0  0
   31.2513   11.7675  -13.1345 H   0  0  0  0  0  0  0  0  0  0  0  0
   28.5875   12.0775  -13.5099 H   0  0  0  0  0  0  0  0  0  0  0  0
   26.3930    9.9775  -11.7275 H   0  0  0  0  0  0  0  0  0  0  0  0
   26.4302   10.8821  -13.2790 H   0  0  0  0  0  0  0  0  0  0  0  0
   26.5827    9.0923  -13.2790 H   0  0  0  0  0  0  0  0  0  0  0  0
   22.8851    7.1112   -6.9686 H   0  0  0  0  0  0  0  0  0  0  0  0
   22.2258    5.5053   -3.0212 H   0  0  0  0  0  0  0  0  0  0  0  0
   26.0591    7.1791   -4.0551 H   0  0  0  0  0  0  0  0  0  0  0  0
  1  7  1  0
  1  2  2  0
  1  5  1  0
  2  3  1  0
  2 19  1  0
  3  4  1  0
  4  8  2  0
  4  6  1  0
  6 10  1  0
  6  7  2  0
  8  9  1  0
  9 12  1  0
  9 10  2  0
 12 13  1  0
 13 17  1  0
 13 14  2  0
 14 15  1  0
 15 16  2  0
 16 17  1  0
 17 18  1  0
 19 20  2  0
 19 24  1  0
 20 21  1  0
 21 22  2  0
 22 23  1  0
 23 24  2  0
  5 11  1  0
  3 25  1  0
  7 26  1  0
 10 27  1  0
 11 28  1  1
 11 29  1  0
 11 30  1  0
 12 31  1  0
 15 32  1  0
 16 33  1  0
 18 34  1  1
 18 35  1  0
 18 36  1  0
 20 37  1  0
 22 38  1  0
 24 39  1  0
M  END
>  <Pose ID>  (144)
14

>  <Score>  (144)
-5.610297203063965

>  <smiles>  (144)
COc1cc2cc(Nc3nccn3C)nc-2[nH]c1-c1cncnc1

$$$$

     RDKit          3D

 44 47  0  0  0  0  0  0  0  0999 V2000
   25.1930    8.9620   -7.1590 C   0  0  0  0  0  0  0  0  0  0  0  0
   25.1960    7.5740   -7.0570 C   0  0  0  0  0  0  0  0  0  0  0  0
   25.9510    6.8140   -7.9370 N   0  0  0  0  0  0  0  0  0  0  0  0
   26.7110    7.4410   -8.9220 C   0  0  0  0  0  0  0  0  0  0  0  0
   24.5730    9.8670   -6.4510 O   0  0  0  0  0  0  0  0  0  0  0  0
   26.7100    8.8250   -9.0220 C   0  0  0  0  0  0  0  0  0  0  0  0
   25.9540    9.5870   -8.1420 C   0  0  0  0  0  0  0  0  0  0  0  0
   27.5100    6.9270   -9.8750 N   0  0  0  0  0  0  0  0  0  0  0  0
   28.0410    7.9630  -10.6110 C   0  0  0  0  0  0  0  0  0  0  0  0
   27.4430    9.0650   -9.9660 C   0  0  0  0  0  0  0  0  0  0  0  0
   25.4230   10.5170   -5.5130 C   0  0  1  0  0  0  0  0  0  0  0  0
   28.8960    8.1110  -11.6780 N   0  0  0  0  0  0  0  0  0  0  0  0
   29.2000    9.3460  -12.1410 C   0  0  0  0  0  0  0  0  0  0  0  0
   30.5220    9.8540  -12.2060 N   0  0  0  0  0  0  0  0  0  0  0  0
   30.4620   11.1470  -12.7430 C   0  0  0  0  0  0  0  0  0  0  0  0
   29.0630   11.2680  -12.9500 C   0  0  0  0  0  0  0  0  0  0  0  0
   28.3180   10.1970  -12.6010 N   0  0  0  0  0  0  0  0  0  0  0  0
   26.8540   10.0700  -12.7520 C   0  0  1  0  0  0  0  0  0  0  0  0
   24.3610    7.1380   -5.9490 C   0  0  0  0  0  0  0  0  0  0  0  0
   23.1750    7.7360   -5.5370 N   0  0  0  0  0  0  0  0  0  0  0  0
   22.5010    7.2460   -4.4240 C   0  0  0  0  0  0  0  0  0  0  0  0
   23.0130    6.1600   -3.7240 C   0  0  0  0  0  0  0  0  0  0  0  0
   24.8710    6.0520   -5.2490 C   0  0  0  0  0  0  0  0  0  0  0  0
   24.1990    5.5620   -4.1350 N   0  0  0  0  0  0  0  0  0  0  0  0
   22.4090    5.7210   -2.7280 O   0  0  0  0  0  0  0  0  0  0  0  0
   21.2140    7.8920   -3.9770 C   0  0  1  0  0  0  0  0  0  0  0  0
   20.2520    7.7490   -5.0100 O   0  0  0  0  0  0  0  0  0  0  0  0
   25.9500    5.7867   -7.8626 H   0  0  0  0  0  0  0  0  0  0  0  0
   25.9565   10.6841   -8.2217 H   0  0  0  0  0  0  0  0  0  0  0  0
   27.6297   10.0963  -10.3000 H   0  0  0  0  0  0  0  0  0  0  0  0
   25.0990   10.2692   -4.4914 H   0  0  0  0  0  0  0  0  0  0  0  0
   26.4591   10.1787   -5.6612 H   0  0  0  0  0  0  0  0  0  0  0  0
   25.3680   11.6056   -5.6612 H   0  0  0  0  0  0  0  0  0  0  0  0
   29.3063    7.2794  -12.1262 H   0  0  0  0  0  0  0  0  0  0  0  0
   31.2702   11.8649  -12.9465 H   0  0  0  0  0  0  0  0  0  0  0  0
   28.6125   12.1796  -13.3696 H   0  0  0  0  0  0  0  0  0  0  0  0
   26.3850   10.0293  -11.7578 H   0  0  0  0  0  0  0  0  0  0  0  0
   26.4658   10.9378  -13.3053 H   0  0  0  0  0  0  0  0  0  0  0  0
   26.6210    9.1483  -13.3053 H   0  0  0  0  0  0  0  0  0  0  0  0
   25.8084    5.5788   -5.5767 H   0  0  0  0  0  0  0  0  0  0  0  0
   24.5788    4.7579   -3.6154 H   0  0  0  0  0  0  0  0  0  0  0  0
   20.8511    7.4005   -3.0623 H   0  0  0  0  0  0  0  0  0  0  0  0
   21.3827    8.9583   -3.7662 H   0  0  0  0  0  0  0  0  0  0  0  0
   19.3561    7.6158   -4.6104 H   0  0  0  0  0  0  0  0  0  0  0  0
  1  7  1  0
  1  2  2  0
  1  5  1  0
  2  3  1  0
  2 19  1  0
  3  4  1  0
  4  8  2  0
  4  6  1  0
  6 10  1  0
  6  7  2  0
  8  9  1  0
  9 12  1  0
  9 10  2  0
 12 13  1  0
 13 17  1  0
 13 14  2  0
 14 15  1  0
 15 16  2  0
 16 17  1  0
 17 18  1  0
 19 20  1  0
 19 23  2  0
 20 21  2  0
 21 26  1  0
 21 22  1  0
 22 24  1  0
 22 25  2  0
 23 24  1  0
 26 27  1  0
  5 11  1  0
  3 28  1  0
  7 29  1  0
 10 30  1  0
 11 31  1  1
 11 32  1  0
 11 33  1  0
 12 34  1  0
 15 35  1  0
 16 36  1  0
 18 37  1  1
 18 38  1  0
 18 39  1  0
 23 40  1  0
 24 41  1  0
 26 42  1  1
 26 43  1  0
 27 44  1  0
M  END
>  <Pose ID>  (145)
56

>  <Score>  (145)
-5.535720348358154

>  <smiles>  (145)
COc1cc2cc(Nc3nccn3C)nc-2[nH]c1-c1c[nH]c(=O)c(CO)n1

$$$$

     RDKit          3D

 35 37  0  0  0  0  0  0  0  0999 V2000
   25.3270    9.1680   -6.9740 C   0  0  0  0  0  0  0  0  0  0  0  0
   25.2610    7.7840   -6.8400 C   0  0  0  0  0  0  0  0  0  0  0  0
   25.9440    6.9640   -7.7280 N   0  0  0  0  0  0  0  0  0  0  0  0
   26.7000    7.5310   -8.7520 C   0  0  0  0  0  0  0  0  0  0  0  0
   24.7800   10.1180   -6.2680 O   0  0  0  0  0  0  0  0  0  0  0  0
   26.7680    8.9090   -8.8840 C   0  0  0  0  0  0  0  0  0  0  0  0
   26.0840    9.7290   -7.9980 C   0  0  0  0  0  0  0  0  0  0  0  0
   27.4390    6.9520   -9.7170 N   0  0  0  0  0  0  0  0  0  0  0  0
   27.9950    7.9430  -10.4960 C   0  0  0  0  0  0  0  0  0  0  0  0
   27.4780    9.0890   -9.8570 C   0  0  0  0  0  0  0  0  0  0  0  0
   25.6930   10.7460   -5.3760 C   0  0  1  0  0  0  0  0  0  0  0  0
   28.8200    8.0220  -11.5930 N   0  0  0  0  0  0  0  0  0  0  0  0
   29.1720    9.2290  -12.0980 C   0  0  0  0  0  0  0  0  0  0  0  0
   30.5130    9.6640  -12.2180 N   0  0  0  0  0  0  0  0  0  0  0  0
   30.5010   10.9470  -12.7840 C   0  0  0  0  0  0  0  0  0  0  0  0
   29.1060   11.1380  -12.9460 C   0  0  0  0  0  0  0  0  0  0  0  0
   28.3170   10.1140  -12.5470 N   0  0  0  0  0  0  0  0  0  0  0  0
   26.8460   10.0630  -12.6450 C   0  0  1  0  0  0  0  0  0  0  0  0
   24.4450    7.1730   -5.7280 C   0  0  1  0  0  0  0  0  0  0  0  0
   24.8120    7.6920   -4.4400 O   0  0  0  0  0  0  0  0  0  0  0  0
   25.8921    5.9400   -7.6302 H   0  0  0  0  0  0  0  0  0  0  0  0
   26.1401   10.8223   -8.1051 H   0  0  0  0  0  0  0  0  0  0  0  0
   27.7061   10.1014  -10.2216 H   0  0  0  0  0  0  0  0  0  0  0  0
   25.3925   10.5393   -4.3382 H   0  0  0  0  0  0  0  0  0  0  0  0
   26.7052   10.3522   -5.5500 H   0  0  0  0  0  0  0  0  0  0  0  0
   25.6872   11.8321   -5.5500 H   0  0  0  0  0  0  0  0  0  0  0  0
   29.1720    7.1598  -12.0329 H   0  0  0  0  0  0  0  0  0  0  0  0
   31.3380   11.6162  -13.0322 H   0  0  0  0  0  0  0  0  0  0  0  0
   28.6898   12.0634  -13.3707 H   0  0  0  0  0  0  0  0  0  0  0  0
   26.4115   10.0479  -11.6346 H   0  0  0  0  0  0  0  0  0  0  0  0
   26.4837   10.9491  -13.1868 H   0  0  0  0  0  0  0  0  0  0  0  0
   26.5459    9.1539  -13.1868 H   0  0  0  0  0  0  0  0  0  0  0  0
   23.3817    7.3900   -5.9079 H   0  0  0  0  0  0  0  0  0  0  0  0
   24.6363    6.0898   -5.7235 H   0  0  0  0  0  0  0  0  0  0  0  0
   24.4131    7.1278   -3.7310 H   0  0  0  0  0  0  0  0  0  0  0  0
  1  7  1  0
  1  2  2  0
  1  5  1  0
  2  3  1  0
  2 19  1  0
  3  4  1  0
  4  8  2  0
  4  6  1  0
  6 10  1  0
  6  7  2  0
  8  9  1  0
  9 12  1  0
  9 10  2  0
 12 13  1  0
 13 17  1  0
 13 14  2  0
 14 15  1  0
 15 16  2  0
 16 17  1  0
 17 18  1  0
  5 11  1  0
 19 20  1  0
  3 21  1  0
  7 22  1  0
 10 23  1  0
 11 24  1  1
 11 25  1  0
 11 26  1  0
 12 27  1  0
 15 28  1  0
 16 29  1  0
 18 30  1  1
 18 31  1  0
 18 32  1  0
 19 33  1  6
 19 34  1  0
 20 35  1  0
M  END
>  <Pose ID>  (146)
126

>  <Score>  (146)
-5.011318683624268

>  <smiles>  (146)
COc1cc2cc(Nc3nccn3C)nc-2[nH]c1CO

$$$$
