
     RDKit          3D

 34 37  0  0  0  0  0  0  0  0999 V2000
   27.2100    8.1910   -9.5700 C   0  0  0  0  0  0  0  0  0  0  0  0
   27.0900    7.0620   -8.7660 N   0  0  0  0  0  0  0  0  0  0  0  0
   26.1420    7.0320   -7.7490 C   0  0  0  0  0  0  0  0  0  0  0  0
   25.3150    8.1300   -7.5350 C   0  0  0  0  0  0  0  0  0  0  0  0
   25.4340    9.2570   -8.3410 N   0  0  0  0  0  0  0  0  0  0  0  0
   26.3830    9.2880   -9.3570 C   0  0  0  0  0  0  0  0  0  0  0  0
   24.3180    8.2710   -6.5770 C   0  0  0  0  0  0  0  0  0  0  0  0
   23.9980    7.2430   -5.6990 C   0  0  0  0  0  0  0  0  0  0  0  0
   23.6150    9.4690   -6.5300 C   0  0  0  0  0  0  0  0  0  0  0  0
   22.9760    7.4090   -4.7760 N   0  0  0  0  0  0  0  0  0  0  0  0
   22.2710    8.6070   -4.7280 C   0  0  0  0  0  0  0  0  0  0  0  0
   24.3000   10.1990   -7.7070 N   0  0  0  0  0  0  0  0  0  0  0  0
   22.5900    9.6370   -5.6050 C   0  0  0  0  0  0  0  0  0  0  0  0
   28.1680    8.2210  -10.5980 C   0  0  0  0  0  0  0  0  0  0  0  0
   29.2210    9.1290  -10.6180 O   0  0  0  0  0  0  0  0  0  0  0  0
   28.2270    7.4130  -11.6970 N   0  0  0  0  0  0  0  0  0  0  0  0
   29.8830    8.8140  -11.7800 C   0  0  0  0  0  0  0  0  0  0  0  0
   29.2840    7.7650  -12.4620 C   0  0  0  0  0  0  0  0  0  0  0  0
   21.1590    8.7880   -3.7250 C   0  0  1  0  0  0  0  0  0  0  0  0
   21.2480   10.0410   -2.8630 C   0  0  1  0  0  0  0  0  0  0  0  0
   26.5150   10.5120  -10.2280 C   0  0  1  0  0  0  0  0  0  0  0  0
   26.0460    6.1394   -7.1133 H   0  0  0  0  0  0  0  0  0  0  0  0
   24.5561    6.2958   -5.7359 H   0  0  0  0  0  0  0  0  0  0  0  0
   22.0322   10.5844   -5.5675 H   0  0  0  0  0  0  0  0  0  0  0  0
   30.7863    9.3350  -12.1301 H   0  0  0  0  0  0  0  0  0  0  0  0
   29.6000    7.3178  -13.4160 H   0  0  0  0  0  0  0  0  0  0  0  0
   20.2080    8.8235   -4.2767 H   0  0  0  0  0  0  0  0  0  0  0  0
   21.2387    7.9386   -3.0306 H   0  0  0  0  0  0  0  0  0  0  0  0
   21.2278    9.7572   -1.8004 H   0  0  0  0  0  0  0  0  0  0  0  0
   22.1861   10.5716   -3.0831 H   0  0  0  0  0  0  0  0  0  0  0  0
   20.3943   10.6989   -3.0831 H   0  0  0  0  0  0  0  0  0  0  0  0
   26.6113   11.4051   -9.5931 H   0  0  0  0  0  0  0  0  0  0  0  0
   27.4079   10.4155  -10.8631 H   0  0  0  0  0  0  0  0  0  0  0  0
   25.6220   10.6081  -10.8631 H   0  0  0  0  0  0  0  0  0  0  0  0
  1 14  1  0
  1  6  2  0
  1  2  1  0
  2  3  2  0
  3  4  1  0
  4  5  1  0
  4  7  2  0
  5  6  1  0
  5 12  1  0
  6 21  1  0
  7  9  1  0
  7  8  1  0
  8 10  2  0
  9 12  2  0
  9 13  1  0
 10 11  1  0
 11 13  2  0
 11 19  1  0
 14 16  2  0
 14 15  1  0
 15 17  1  0
 16 18  1  0
 17 18  2  0
 19 20  1  0
  3 22  1  0
  8 23  1  0
 13 24  1  0
 17 25  1  0
 18 26  1  0
 19 27  1  6
 19 28  1  0
 20 29  1  1
 20 30  1  0
 20 31  1  0
 21 32  1  1
 21 33  1  0
 21 34  1  0
M  END
>  <Pose ID>  (1)
72

>  <Score>  (1)
-9.088296890258789

>  <smiles>  (1)
CCc1cc2nn3c(C)c(-c4ncco4)ncc3c2cn1

$$$$

     RDKit          3D

 32 35  0  0  0  0  0  0  0  0999 V2000
   26.7300    6.7310   -9.2190 C   0  0  0  0  0  0  0  0  0  0  0  0
   27.7400    7.2870   -9.9950 N   0  0  0  0  0  0  0  0  0  0  0  0
   25.7290    7.5440   -8.6970 N   0  0  0  0  0  0  0  0  0  0  0  0
   25.7300    8.8450   -8.9570 C   0  0  0  0  0  0  0  0  0  0  0  0
   26.6540    9.6080   -9.6610 C   0  0  0  0  0  0  0  0  0  0  0  0
   27.7470    8.6530  -10.2530 C   0  0  0  0  0  0  0  0  0  0  0  0
   24.6530    9.4620   -8.3330 N   0  0  0  0  0  0  0  0  0  0  0  0
   24.4990   10.8410   -8.4140 C   0  0  0  0  0  0  0  0  0  0  0  0
   25.4220   11.6020   -9.1190 N   0  0  0  0  0  0  0  0  0  0  0  0
   26.5010   10.9990   -9.7400 C   0  0  0  0  0  0  0  0  0  0  0  0
   27.4410   11.7710  -10.4910 C   0  0  0  0  0  0  0  0  0  0  0  0
   27.5660   11.3770  -11.8200 C   0  0  0  0  0  0  0  0  0  0  0  0
   28.3120   12.7140   -9.9610 C   0  0  0  0  0  0  0  0  0  0  0  0
   29.3120   13.2620  -10.7550 C   0  0  0  0  0  0  0  0  0  0  0  0
   29.4380   12.8690  -12.0840 C   0  0  0  0  0  0  0  0  0  0  0  0
   28.5660   11.9270  -12.6150 C   0  0  0  0  0  0  0  0  0  0  0  0
   30.4670   13.5330  -12.6420 N   0  0  0  0  0  0  0  0  0  0  0  0
   30.9660   14.3290  -11.6530 O   0  0  0  0  0  0  0  0  0  0  0  0
   30.3040   14.1900  -10.5700 C   0  0  0  0  0  0  0  0  0  0  0  0
   28.8340    9.2310  -11.1250 C   0  0  1  0  0  0  0  0  0  0  0  0
   29.9920    8.2980  -11.3920 C   0  0  1  0  0  0  0  0  0  0  0  0
   26.7221    5.6496   -9.0178 H   0  0  0  0  0  0  0  0  0  0  0  0
   23.6462   11.3293   -7.9198 H   0  0  0  0  0  0  0  0  0  0  0  0
   26.8750   10.6318  -12.2410 H   0  0  0  0  0  0  0  0  0  0  0  0
   28.2101   13.0274   -8.9115 H   0  0  0  0  0  0  0  0  0  0  0  0
   28.6665   11.6157  -13.6653 H   0  0  0  0  0  0  0  0  0  0  0  0
   30.4996   14.7316   -9.6327 H   0  0  0  0  0  0  0  0  0  0  0  0
   28.3872    9.5079  -12.0913 H   0  0  0  0  0  0  0  0  0  0  0  0
   29.2475   10.0907  -10.5773 H   0  0  0  0  0  0  0  0  0  0  0  0
   30.4157    7.9566  -10.4360 H   0  0  0  0  0  0  0  0  0  0  0  0
   29.6382    7.4297  -11.9672 H   0  0  0  0  0  0  0  0  0  0  0  0
   30.7652    8.8285  -11.9672 H   0  0  0  0  0  0  0  0  0  0  0  0
  1  2  2  0
  1  3  1  0
  2  6  1  0
  3  4  2  0
  4  5  1  0
  4  7  1  0
  5  6  2  0
  5 10  1  0
  6 20  1  0
  7  8  2  0
  8  9  1  0
  9 10  2  0
 10 11  1  0
 11 12  1  0
 11 13  2  0
 12 16  2  0
 13 14  1  0
 14 15  1  0
 14 19  2  0
 15 17  2  0
 15 16  1  0
 17 18  1  0
 18 19  1  0
 20 21  1  0
  1 22  1  0
  8 23  1  0
 12 24  1  0
 13 25  1  0
 16 26  1  0
 19 27  1  0
 20 28  1  6
 20 29  1  0
 21 30  1  1
 21 31  1  0
 21 32  1  0
M  END
>  <Pose ID>  (2)
16

>  <Score>  (2)
-8.956523895263672

>  <smiles>  (2)
CCc1ncnc2ncnc(-c3ccc4nocc4c3)c12

$$$$

     RDKit          3D

 36 39  0  0  0  0  0  0  0  0999 V2000
   26.3440    6.7200   -8.5160 C   0  0  0  0  0  0  0  0  0  0  0  0
   27.3840    7.2560   -9.2680 N   0  0  0  0  0  0  0  0  0  0  0  0
   25.2870    7.5280   -8.1160 N   0  0  0  0  0  0  0  0  0  0  0  0
   25.2630    8.8090   -8.4670 C   0  0  0  0  0  0  0  0  0  0  0  0
   26.2050    9.5520   -9.1670 C   0  0  0  0  0  0  0  0  0  0  0  0
   27.3640    8.6000   -9.6200 C   0  0  0  0  0  0  0  0  0  0  0  0
   24.1280    9.4280   -7.9570 N   0  0  0  0  0  0  0  0  0  0  0  0
   23.9350   10.7920   -8.1450 C   0  0  0  0  0  0  0  0  0  0  0  0
   24.8780   11.5360   -8.8470 N   0  0  0  0  0  0  0  0  0  0  0  0
   26.0140   10.9300   -9.3570 C   0  0  0  0  0  0  0  0  0  0  0  0
   26.9730   11.6810  -10.1020 C   0  0  0  0  0  0  0  0  0  0  0  0
   27.1950   11.2010  -11.3890 C   0  0  0  0  0  0  0  0  0  0  0  0
   27.7790   12.6890   -9.5880 C   0  0  0  0  0  0  0  0  0  0  0  0
   28.7620   13.1420  -10.2940 C   0  0  0  0  0  0  0  0  0  0  0  0
   29.0480   12.7830  -11.6050 C   0  0  0  0  0  0  0  0  0  0  0  0
   28.2240   11.7280  -12.1590 C   0  0  0  0  0  0  0  0  0  0  0  0
   30.0890   13.4030  -12.2840 C   0  0  0  0  0  0  0  0  0  0  0  0
   30.8450   14.3830  -11.6540 N   0  0  0  0  0  0  0  0  0  0  0  0
   30.5620   14.7420  -10.3420 C   0  0  0  0  0  0  0  0  0  0  0  0
   29.5210   14.1220   -9.6620 C   0  0  0  0  0  0  0  0  0  0  0  0
   28.2510    9.3410  -10.3690 O   0  0  0  0  0  0  0  0  0  0  0  0
   28.6730    8.8010  -11.7280 C   0  0  1  0  0  0  0  0  0  0  0  0
   30.3980   13.0110  -13.7080 C   0  0  1  0  0  0  0  0  0  0  0  0
   26.3584    5.6558   -8.2378 H   0  0  0  0  0  0  0  0  0  0  0  0
   23.0378   11.2823   -7.7392 H   0  0  0  0  0  0  0  0  0  0  0  0
   26.5556   10.4042  -11.7967 H   0  0  0  0  0  0  0  0  0  0  0  0
   27.5817   13.0989   -8.5865 H   0  0  0  0  0  0  0  0  0  0  0  0
   28.4106   11.3497  -13.1749 H   0  0  0  0  0  0  0  0  0  0  0  0
   31.1618   15.5167   -9.8419 H   0  0  0  0  0  0  0  0  0  0  0  0
   29.2967   14.4061   -8.6233 H   0  0  0  0  0  0  0  0  0  0  0  0
   29.3449    7.9413  -11.5884 H   0  0  0  0  0  0  0  0  0  0  0  0
   27.7819    8.4827  -12.2889 H   0  0  0  0  0  0  0  0  0  0  0  0
   29.1972    9.5888  -12.2889 H   0  0  0  0  0  0  0  0  0  0  0  0
   31.0790   12.1471  -13.7110 H   0  0  0  0  0  0  0  0  0  0  0  0
   29.4648   12.7441  -14.2256 H   0  0  0  0  0  0  0  0  0  0  0  0
   30.8755   13.8561  -14.2256 H   0  0  0  0  0  0  0  0  0  0  0  0
  1  2  2  0
  1  3  1  0
  2  6  1  0
  3  4  2  0
  4  5  1  0
  4  7  1  0
  5  6  2  0
  5 10  1  0
  6 21  1  0
  7  8  2  0
  8  9  1  0
  9 10  2  0
 10 11  1  0
 11 12  2  0
 11 13  1  0
 12 16  1  0
 13 14  2  0
 14 15  1  0
 14 20  1  0
 15 17  1  0
 15 16  2  0
 17 23  1  0
 17 18  2  0
 18 19  1  0
 19 20  2  0
 21 22  1  0
  1 24  1  0
  8 25  1  0
 12 26  1  0
 13 27  1  0
 16 28  1  0
 19 29  1  0
 20 30  1  0
 22 31  1  1
 22 32  1  0
 22 33  1  0
 23 34  1  1
 23 35  1  0
 23 36  1  0
M  END
>  <Pose ID>  (3)
34

>  <Score>  (3)
-8.826952934265137

>  <smiles>  (3)
COc1ncnc2ncnc(-c3ccc4c(C)nccc4c3)c12

$$$$

     RDKit          3D

 38 41  0  0  0  0  0  0  0  0999 V2000
   27.4520    8.0760   -9.6900 C   0  0  0  0  0  0  0  0  0  0  0  0
   26.9730    7.0670   -8.8690 N   0  0  0  0  0  0  0  0  0  0  0  0
   26.0690    7.3620   -7.8600 C   0  0  0  0  0  0  0  0  0  0  0  0
   25.6420    8.6720   -7.6690 C   0  0  0  0  0  0  0  0  0  0  0  0
   24.7640    8.9280   -6.5880 C   0  0  0  0  0  0  0  0  0  0  0  0
   24.3120    7.8890   -5.7810 C   0  0  0  0  0  0  0  0  0  0  0  0
   24.7370    6.5890   -6.0250 C   0  0  0  0  0  0  0  0  0  0  0  0
   25.6090    6.3240   -7.0700 C   0  0  0  0  0  0  0  0  0  0  0  0
   27.0260    9.3860   -9.5020 C   0  0  0  0  0  0  0  0  0  0  0  0
   26.1200    9.6840   -8.4900 C   0  0  0  0  0  0  0  0  0  0  0  0
   28.3470    7.7860  -10.6900 N   0  0  0  0  0  0  0  0  0  0  0  0
   28.9030    8.6720  -11.5100 C   0  0  0  0  0  0  0  0  0  0  0  0
   30.2800    8.9200  -11.6140 N   0  0  0  0  0  0  0  0  0  0  0  0
   30.3780    9.8860  -12.5350 O   0  0  0  0  0  0  0  0  0  0  0  0
   29.2420   10.2430  -13.0020 C   0  0  0  0  0  0  0  0  0  0  0  0
   28.2630    9.4490  -12.3890 C   0  0  0  0  0  0  0  0  0  0  0  0
   27.3540   10.5690  -10.1880 C   0  0  0  0  0  0  0  0  0  0  0  0
   28.6550   10.9210  -10.5810 N   0  0  0  0  0  0  0  0  0  0  0  0
   28.5660   12.0050  -11.2690 N   0  0  0  0  0  0  0  0  0  0  0  0
   26.5430   11.5300  -10.7500 C   0  0  0  0  0  0  0  0  0  0  0  0
   27.3480   12.4840  -11.3670 C   0  0  0  0  0  0  0  0  0  0  0  0
   29.8280   12.7650  -11.8680 C   0  0  1  0  0  0  0  0  0  0  0  0
   24.3130   10.3420   -6.3110 C   0  0  1  0  0  0  0  0  0  0  0  0
   23.6197    8.0962   -4.9516 H   0  0  0  0  0  0  0  0  0  0  0  0
   24.3805    5.7670   -5.3869 H   0  0  0  0  0  0  0  0  0  0  0  0
   25.9337    5.2922   -7.2700 H   0  0  0  0  0  0  0  0  0  0  0  0
   25.7826   10.7202   -8.3403 H   0  0  0  0  0  0  0  0  0  0  0  0
   28.6098    6.7980  -10.8154 H   0  0  0  0  0  0  0  0  0  0  0  0
   29.0653   11.0305  -13.7494 H   0  0  0  0  0  0  0  0  0  0  0  0
   27.1819    9.4627  -12.5914 H   0  0  0  0  0  0  0  0  0  0  0  0
   25.4436   11.5419  -10.7169 H   0  0  0  0  0  0  0  0  0  0  0  0
   27.0330   13.4293  -11.8331 H   0  0  0  0  0  0  0  0  0  0  0  0
   30.4536   13.1418  -11.0454 H   0  0  0  0  0  0  0  0  0  0  0  0
   30.4150   12.0701  -12.4865 H   0  0  0  0  0  0  0  0  0  0  0  0
   29.4883   13.6089  -12.4865 H   0  0  0  0  0  0  0  0  0  0  0  0
   24.2613   10.5041   -5.2242 H   0  0  0  0  0  0  0  0  0  0  0  0
   25.0302   11.0490   -6.7535 H   0  0  0  0  0  0  0  0  0  0  0  0
   23.3189   10.5031   -6.7535 H   0  0  0  0  0  0  0  0  0  0  0  0
  1 11  1  0
  1  9  1  0
  1  2  2  0
  2  3  1  0
  3  4  2  0
  3  8  1  0
  4 10  1  0
  4  5  1  0
  5 23  1  0
  5  6  2  0
  6  7  1  0
  7  8  2  0
  9 17  1  0
  9 10  2  0
 11 12  1  0
 12 16  1  0
 12 13  2  0
 13 14  1  0
 14 15  1  0
 15 16  2  0
 17 20  1  0
 17 18  2  0
 18 19  1  0
 19 22  1  0
 19 21  1  0
 20 21  2  0
  6 24  1  0
  7 25  1  0
  8 26  1  0
 10 27  1  0
 11 28  1  0
 15 29  1  0
 16 30  1  0
 20 31  1  0
 21 32  1  0
 22 33  1  1
 22 34  1  0
 22 35  1  0
 23 36  1  1
 23 37  1  0
 23 38  1  0
M  END
>  <Pose ID>  (4)
15

>  <Score>  (4)
-8.816930770874023

>  <smiles>  (4)
Cc1cccc2nc(Nc3ccon3)c(-c3ccn(C)n3)cc12

$$$$

     RDKit          3D

 38 41  0  0  0  0  0  0  0  0999 V2000
   27.4260    8.0260   -9.6500 C   0  0  0  0  0  0  0  0  0  0  0  0
   26.9530    7.0220   -8.8200 N   0  0  0  0  0  0  0  0  0  0  0  0
   26.0590    7.3230   -7.8040 C   0  0  0  0  0  0  0  0  0  0  0  0
   25.6350    8.6340   -7.6160 C   0  0  0  0  0  0  0  0  0  0  0  0
   24.7670    8.8960   -6.5290 C   0  0  0  0  0  0  0  0  0  0  0  0
   24.3210    7.8610   -5.7120 C   0  0  0  0  0  0  0  0  0  0  0  0
   24.7430    6.5590   -5.9540 C   0  0  0  0  0  0  0  0  0  0  0  0
   25.6060    6.2890   -7.0050 C   0  0  0  0  0  0  0  0  0  0  0  0
   27.0030    9.3380   -9.4650 C   0  0  0  0  0  0  0  0  0  0  0  0
   26.1060    9.6420   -8.4470 C   0  0  0  0  0  0  0  0  0  0  0  0
   28.3120    7.7320  -10.6570 N   0  0  0  0  0  0  0  0  0  0  0  0
   28.8610    8.6130  -11.4860 C   0  0  0  0  0  0  0  0  0  0  0  0
   30.2370    8.8590  -11.6040 N   0  0  0  0  0  0  0  0  0  0  0  0
   30.3280    9.8210  -12.5300 O   0  0  0  0  0  0  0  0  0  0  0  0
   29.1880   10.1760  -12.9890 C   0  0  0  0  0  0  0  0  0  0  0  0
   28.2140    9.3850  -12.3630 C   0  0  0  0  0  0  0  0  0  0  0  0
   27.3260   10.5170  -10.1590 C   0  0  0  0  0  0  0  0  0  0  0  0
   28.6230   10.8660  -10.5660 N   0  0  0  0  0  0  0  0  0  0  0  0
   28.5290   11.9470  -11.2580 N   0  0  0  0  0  0  0  0  0  0  0  0
   26.5100   11.4760  -10.7190 C   0  0  0  0  0  0  0  0  0  0  0  0
   27.3110   12.4260  -11.3470 C   0  0  0  0  0  0  0  0  0  0  0  0
   29.7860   12.7030  -11.8720 C   0  0  1  0  0  0  0  0  0  0  0  0
   29.9040   14.1800  -11.6290 C   0  0  1  0  0  0  0  0  0  0  0  0
   24.4418    9.9274   -6.3280 H   0  0  0  0  0  0  0  0  0  0  0  0
   23.6366    8.0729   -4.8773 H   0  0  0  0  0  0  0  0  0  0  0  0
   24.3911    5.7400   -5.3095 H   0  0  0  0  0  0  0  0  0  0  0  0
   25.9292    5.2563   -7.2026 H   0  0  0  0  0  0  0  0  0  0  0  0
   25.7701   10.6791   -8.3002 H   0  0  0  0  0  0  0  0  0  0  0  0
   28.5734    6.7434  -10.7802 H   0  0  0  0  0  0  0  0  0  0  0  0
   29.0049   10.9597  -13.7389 H   0  0  0  0  0  0  0  0  0  0  0  0
   27.1312    9.3978  -12.5561 H   0  0  0  0  0  0  0  0  0  0  0  0
   25.4109   11.4888  -10.6769 H   0  0  0  0  0  0  0  0  0  0  0  0
   26.9929   13.3696  -11.8144 H   0  0  0  0  0  0  0  0  0  0  0  0
   30.6881   12.2295  -11.4572 H   0  0  0  0  0  0  0  0  0  0  0  0
   29.6587   12.6114  -12.9608 H   0  0  0  0  0  0  0  0  0  0  0  0
   29.9194   14.3734  -10.5462 H   0  0  0  0  0  0  0  0  0  0  0  0
   30.8348   14.5528  -12.0814 H   0  0  0  0  0  0  0  0  0  0  0  0
   29.0442   14.6959  -12.0814 H   0  0  0  0  0  0  0  0  0  0  0  0
  1 11  1  0
  1  9  1  0
  1  2  2  0
  2  3  1  0
  3  4  2  0
  3  8  1  0
  4 10  1  0
  4  5  1  0
  5  6  2  0
  6  7  1  0
  7  8  2  0
  9 17  1  0
  9 10  2  0
 11 12  1  0
 12 16  1  0
 12 13  2  0
 13 14  1  0
 14 15  1  0
 15 16  2  0
 17 20  1  0
 17 18  2  0
 18 19  1  0
 19 22  1  0
 19 21  1  0
 20 21  2  0
 22 23  1  0
  5 24  1  0
  6 25  1  0
  7 26  1  0
  8 27  1  0
 10 28  1  0
 11 29  1  0
 15 30  1  0
 16 31  1  0
 20 32  1  0
 21 33  1  0
 22 34  1  1
 22 35  1  0
 23 36  1  1
 23 37  1  0
 23 38  1  0
M  END
>  <Pose ID>  (5)
16

>  <Score>  (5)
-8.59836196899414

>  <smiles>  (5)
CCn1ccc(-c2cc3ccccc3nc2Nc2ccon2)n1

$$$$

     RDKit          3D

 34 37  0  0  0  0  0  0  0  0999 V2000
   27.1600    8.2390   -9.5400 C   0  0  0  0  0  0  0  0  0  0  0  0
   27.0970    7.0630   -8.8010 N   0  0  0  0  0  0  0  0  0  0  0  0
   26.2070    6.9570   -7.7390 C   0  0  0  0  0  0  0  0  0  0  0  0
   25.3800    8.0280   -7.4170 C   0  0  0  0  0  0  0  0  0  0  0  0
   25.4400    9.2020   -8.1570 N   0  0  0  0  0  0  0  0  0  0  0  0
   26.3320    9.3080   -9.2180 C   0  0  0  0  0  0  0  0  0  0  0  0
   24.4340    8.0970   -6.4000 C   0  0  0  0  0  0  0  0  0  0  0  0
   24.1740    7.0120   -5.5690 C   0  0  0  0  0  0  0  0  0  0  0  0
   23.7180    9.2770   -6.2420 C   0  0  0  0  0  0  0  0  0  0  0  0
   23.1990    7.1080   -4.5840 N   0  0  0  0  0  0  0  0  0  0  0  0
   22.4830    8.2900   -4.4270 C   0  0  0  0  0  0  0  0  0  0  0  0
   24.3300   10.0860   -7.4080 N   0  0  0  0  0  0  0  0  0  0  0  0
   22.7430    9.3740   -5.2560 C   0  0  0  0  0  0  0  0  0  0  0  0
   28.0600    8.3460  -10.6160 C   0  0  0  0  0  0  0  0  0  0  0  0
   29.0990    9.2690  -10.6350 O   0  0  0  0  0  0  0  0  0  0  0  0
   29.6780    9.0410  -11.8360 C   0  0  0  0  0  0  0  0  0  0  0  0
   29.0560    8.0420  -12.5260 N   0  0  0  0  0  0  0  0  0  0  0  0
   28.0260    7.5800  -11.7640 C   0  0  0  0  0  0  0  0  0  0  0  0
   21.9650   10.6570   -5.0860 C   0  0  1  0  0  0  0  0  0  0  0  0
   21.9030   11.2000   -3.6770 C   0  0  1  0  0  0  0  0  0  0  0  0
   26.4010   10.5840  -10.0200 C   0  0  1  0  0  0  0  0  0  0  0  0
   26.1566    6.0271   -7.1536 H   0  0  0  0  0  0  0  0  0  0  0  0
   24.7409    6.0774   -5.6919 H   0  0  0  0  0  0  0  0  0  0  0  0
   21.7113    8.3665   -3.6469 H   0  0  0  0  0  0  0  0  0  0  0  0
   30.5494    9.5967  -12.2126 H   0  0  0  0  0  0  0  0  0  0  0  0
   27.3207    6.7724  -12.0098 H   0  0  0  0  0  0  0  0  0  0  0  0
   22.4309   11.4226   -5.7238 H   0  0  0  0  0  0  0  0  0  0  0  0
   20.9274   10.4193   -5.3633 H   0  0  0  0  0  0  0  0  0  0  0  0
   21.9976   10.3711   -2.9601 H   0  0  0  0  0  0  0  0  0  0  0  0
   22.7255   11.9140   -3.5227 H   0  0  0  0  0  0  0  0  0  0  0  0
   20.9408   11.7102   -3.5227 H   0  0  0  0  0  0  0  0  0  0  0  0
   26.4475   11.4446   -9.3365 H   0  0  0  0  0  0  0  0  0  0  0  0
   27.2997   10.5704  -10.6541 H   0  0  0  0  0  0  0  0  0  0  0  0
   25.5061   10.6674  -10.6541 H   0  0  0  0  0  0  0  0  0  0  0  0
  1 14  1  0
  1  6  2  0
  1  2  1  0
  2  3  2  0
  3  4  1  0
  4  5  1  0
  4  7  2  0
  5  6  1  0
  5 12  1  0
  6 21  1  0
  7  9  1  0
  7  8  1  0
  8 10  2  0
  9 12  2  0
  9 13  1  0
 10 11  1  0
 11 13  2  0
 13 19  1  0
 14 18  2  0
 14 15  1  0
 15 16  1  0
 16 17  2  0
 17 18  1  0
 19 20  1  0
  3 22  1  0
  8 23  1  0
 11 24  1  0
 16 25  1  0
 18 26  1  0
 19 27  1  6
 19 28  1  0
 20 29  1  1
 20 30  1  0
 20 31  1  0
 21 32  1  1
 21 33  1  0
 21 34  1  0
M  END
>  <Pose ID>  (6)
85

>  <Score>  (6)
-8.54932975769043

>  <smiles>  (6)
CCc1cncc2c1nn1c(C)c(-c3cnco3)ncc21

$$$$

     RDKit          3D

 36 39  0  0  0  0  0  0  0  0999 V2000
   26.3640    6.7580   -8.3140 C   0  0  0  0  0  0  0  0  0  0  0  0
   27.3320    7.1090   -9.2460 N   0  0  0  0  0  0  0  0  0  0  0  0
   25.3880    7.6770   -7.9460 N   0  0  0  0  0  0  0  0  0  0  0  0
   25.3730    8.8830   -8.5000 C   0  0  0  0  0  0  0  0  0  0  0  0
   26.2580    9.4520   -9.4060 C   0  0  0  0  0  0  0  0  0  0  0  0
   27.3240    8.3770   -9.8130 C   0  0  0  0  0  0  0  0  0  0  0  0
   24.3250    9.6380   -7.9850 N   0  0  0  0  0  0  0  0  0  0  0  0
   24.1630   10.9610   -8.3760 C   0  0  0  0  0  0  0  0  0  0  0  0
   25.0500   11.5300   -9.2840 N   0  0  0  0  0  0  0  0  0  0  0  0
   26.0990   10.7900   -9.8010 C   0  0  0  0  0  0  0  0  0  0  0  0
   26.9960   11.3570  -10.7560 C   0  0  0  0  0  0  0  0  0  0  0  0
   27.0570   10.6670  -11.9610 C   0  0  0  0  0  0  0  0  0  0  0  0
   27.8910   12.3900  -10.5010 C   0  0  0  0  0  0  0  0  0  0  0  0
   28.8070   12.6690  -11.3700 C   0  0  0  0  0  0  0  0  0  0  0  0
   28.9320   12.0900  -12.6260 C   0  0  0  0  0  0  0  0  0  0  0  0
   28.0140   11.0050  -12.9100 C   0  0  0  0  0  0  0  0  0  0  0  0
   29.9140   12.5340  -13.5030 C   0  0  0  0  0  0  0  0  0  0  0  0
   30.7710   13.5590  -13.1240 N   0  0  0  0  0  0  0  0  0  0  0  0
   30.6480   14.1400  -11.8670 C   0  0  0  0  0  0  0  0  0  0  0  0
   29.6660   13.6940  -10.9910 C   0  0  0  0  0  0  0  0  0  0  0  0
   27.6020   12.9550   -9.2790 O   0  0  0  0  0  0  0  0  0  0  0  0
   26.4940   13.8430   -9.3310 C   0  0  1  0  0  0  0  0  0  0  0  0
   29.5310   14.3240   -9.6270 C   0  0  1  0  0  0  0  0  0  0  0  0
   26.3696    5.7529   -7.8671 H   0  0  0  0  0  0  0  0  0  0  0  0
   28.0841    8.6331  -10.5658 H   0  0  0  0  0  0  0  0  0  0  0  0
   23.3341   11.5581   -7.9680 H   0  0  0  0  0  0  0  0  0  0  0  0
   26.3465    9.8520  -12.1637 H   0  0  0  0  0  0  0  0  0  0  0  0
   28.0740   10.4575  -13.8622 H   0  0  0  0  0  0  0  0  0  0  0  0
   30.0126   12.0738  -14.4972 H   0  0  0  0  0  0  0  0  0  0  0  0
   31.3270   14.9515  -11.5664 H   0  0  0  0  0  0  0  0  0  0  0  0
   26.1785   14.0959   -8.3080 H   0  0  0  0  0  0  0  0  0  0  0  0
   26.7846   14.7611   -9.8626 H   0  0  0  0  0  0  0  0  0  0  0  0
   25.6612   13.3594   -9.8626 H   0  0  0  0  0  0  0  0  0  0  0  0
   29.6947   13.5602   -8.8525 H   0  0  0  0  0  0  0  0  0  0  0  0
   30.2782   15.1238   -9.5169 H   0  0  0  0  0  0  0  0  0  0  0  0
   28.5217   14.7474   -9.5169 H   0  0  0  0  0  0  0  0  0  0  0  0
 11 12  2  0
 11 13  1  0
 11 10  1  0
 12 16  1  0
 13 14  2  0
 13 21  1  0
 14 15  1  0
 14 20  1  0
 15 17  1  0
 15 16  2  0
 17 18  2  0
 18 19  1  0
 19 20  2  0
 20 23  1  0
  1  2  2  0
  1  3  1  0
  2  6  1  0
  3  4  2  0
  4  5  1  0
  4  7  1  0
  5  6  2  0
  5 10  1  0
  7  8  2  0
  8  9  1  0
  9 10  2  0
 21 22  1  0
  1 24  1  0
  6 25  1  0
  8 26  1  0
 12 27  1  0
 16 28  1  0
 17 29  1  0
 19 30  1  0
 22 31  1  1
 22 32  1  0
 22 33  1  0
 23 34  1  1
 23 35  1  0
 23 36  1  0
M  END
>  <Pose ID>  (7)
23

>  <Score>  (7)
-8.492473602294922

>  <smiles>  (7)
COc1c(-c2ncnc3ncncc23)ccc2cncc(C)c12

$$$$

     RDKit          3D

 36 39  0  0  0  0  0  0  0  0999 V2000
   26.2520    7.2380   -7.4250 C   0  0  0  0  0  0  0  0  0  0  0  0
   27.3400    7.6540   -8.1810 N   0  0  0  0  0  0  0  0  0  0  0  0
   25.1450    8.0650   -7.2840 N   0  0  0  0  0  0  0  0  0  0  0  0
   25.1220    9.2470   -7.8900 C   0  0  0  0  0  0  0  0  0  0  0  0
   26.1040    9.8730   -8.6460 C   0  0  0  0  0  0  0  0  0  0  0  0
   27.3200    8.8970   -8.8010 C   0  0  0  0  0  0  0  0  0  0  0  0
   23.9320    9.9100   -7.6110 N   0  0  0  0  0  0  0  0  0  0  0  0
   23.7240   11.1980   -8.0870 C   0  0  0  0  0  0  0  0  0  0  0  0
   24.7080   11.8240   -8.8450 N   0  0  0  0  0  0  0  0  0  0  0  0
   25.8980   11.1760   -9.1270 C   0  0  0  0  0  0  0  0  0  0  0  0
   26.9010   11.8010   -9.9280 C   0  0  0  0  0  0  0  0  0  0  0  0
   27.2470   11.0830  -11.0680 C   0  0  0  0  0  0  0  0  0  0  0  0
   27.6350   12.9240   -9.5650 C   0  0  0  0  0  0  0  0  0  0  0  0
   28.6660   13.2660  -10.2650 C   0  0  0  0  0  0  0  0  0  0  0  0
   29.0750   12.6630  -11.4490 C   0  0  0  0  0  0  0  0  0  0  0  0
   28.3280   11.4860  -11.8430 C   0  0  0  0  0  0  0  0  0  0  0  0
   30.1570   13.1770  -12.1520 C   0  0  0  0  0  0  0  0  0  0  0  0
   30.8330   14.2920  -11.6740 N   0  0  0  0  0  0  0  0  0  0  0  0
   30.4250   14.8950  -10.4900 C   0  0  0  0  0  0  0  0  0  0  0  0
   29.3430   14.3820   -9.7850 C   0  0  0  0  0  0  0  0  0  0  0  0
   28.4870   10.6260  -12.9070 O   0  0  0  0  0  0  0  0  0  0  0  0
   29.0890    9.4280  -12.4990 C   0  0  1  0  0  0  0  0  0  0  0  0
   30.6000   12.5230  -13.4380 C   0  0  1  0  0  0  0  0  0  0  0  0
   26.2669    6.2522   -6.9372 H   0  0  0  0  0  0  0  0  0  0  0  0
   28.1790    9.2036   -9.4159 H   0  0  0  0  0  0  0  0  0  0  0  0
   22.7827   11.7222   -7.8650 H   0  0  0  0  0  0  0  0  0  0  0  0
   26.6646   10.1955  -11.3564 H   0  0  0  0  0  0  0  0  0  0  0  0
   27.3402   13.5180   -8.6873 H   0  0  0  0  0  0  0  0  0  0  0  0
   30.9589   15.7788  -10.1108 H   0  0  0  0  0  0  0  0  0  0  0  0
   29.0219   14.8587   -8.8471 H   0  0  0  0  0  0  0  0  0  0  0  0
   29.1109    9.3843  -11.4001 H   0  0  0  0  0  0  0  0  0  0  0  0
   28.5118    8.5764  -12.8883 H   0  0  0  0  0  0  0  0  0  0  0  0
   30.1168    9.3829  -12.8883 H   0  0  0  0  0  0  0  0  0  0  0  0
   31.2032   11.6325  -13.2076 H   0  0  0  0  0  0  0  0  0  0  0  0
   29.7162   12.2262  -14.0218 H   0  0  0  0  0  0  0  0  0  0  0  0
   31.2034   13.2336  -14.0218 H   0  0  0  0  0  0  0  0  0  0  0  0
 11 12  2  0
 11 13  1  0
 11 10  1  0
 12 16  1  0
 13 14  2  0
 14 15  1  0
 14 20  1  0
 15 17  1  0
 15 16  2  0
 16 21  1  0
 17 23  1  0
 17 18  2  0
 18 19  1  0
 19 20  2  0
  1  2  2  0
  1  3  1  0
  2  6  1  0
  3  4  2  0
  4  5  1  0
  4  7  1  0
  5 10  1  0
  5  6  2  0
  7  8  2  0
  8  9  1  0
  9 10  2  0
 21 22  1  0
  1 24  1  0
  6 25  1  0
  8 26  1  0
 12 27  1  0
 13 28  1  0
 19 29  1  0
 20 30  1  0
 22 31  1  1
 22 32  1  0
 22 33  1  0
 23 34  1  1
 23 35  1  0
 23 36  1  0
M  END
>  <Pose ID>  (8)
29

>  <Score>  (8)
-8.475800514221191

>  <smiles>  (8)
COc1cc(-c2ncnc3ncncc23)cc2ccnc(C)c12

$$$$

     RDKit          3D

 32 35  0  0  0  0  0  0  0  0999 V2000
   26.3480    6.7570   -8.3010 C   0  0  0  0  0  0  0  0  0  0  0  0
   27.3190    7.1050   -9.2320 N   0  0  0  0  0  0  0  0  0  0  0  0
   25.3720    7.6770   -7.9370 N   0  0  0  0  0  0  0  0  0  0  0  0
   25.3570    8.8810   -8.4960 C   0  0  0  0  0  0  0  0  0  0  0  0
   26.2450    9.4470   -9.4020 C   0  0  0  0  0  0  0  0  0  0  0  0
   27.3100    8.3720   -9.8030 C   0  0  0  0  0  0  0  0  0  0  0  0
   24.3090    9.6380   -7.9850 N   0  0  0  0  0  0  0  0  0  0  0  0
   24.1470   10.9600   -8.3800 C   0  0  0  0  0  0  0  0  0  0  0  0
   25.0360   11.5270   -9.2880 N   0  0  0  0  0  0  0  0  0  0  0  0
   26.0860   10.7840   -9.8000 C   0  0  0  0  0  0  0  0  0  0  0  0
   26.9860   11.3490  -10.7550 C   0  0  0  0  0  0  0  0  0  0  0  0
   27.0490   10.6540  -11.9580 C   0  0  0  0  0  0  0  0  0  0  0  0
   27.8800   12.3820  -10.5020 C   0  0  0  0  0  0  0  0  0  0  0  0
   28.7980   12.6590  -11.3690 C   0  0  0  0  0  0  0  0  0  0  0  0
   28.9250   12.0750  -12.6240 C   0  0  0  0  0  0  0  0  0  0  0  0
   28.0070   10.9900  -12.9060 C   0  0  0  0  0  0  0  0  0  0  0  0
   29.9090   12.5170  -13.4990 C   0  0  0  0  0  0  0  0  0  0  0  0
   30.7660   13.5430  -13.1220 N   0  0  0  0  0  0  0  0  0  0  0  0
   30.6400   14.1280  -11.8680 C   0  0  0  0  0  0  0  0  0  0  0  0
   29.6560   13.6850  -10.9910 C   0  0  0  0  0  0  0  0  0  0  0  0
   29.5200   14.3170   -9.6280 C   0  0  1  0  0  0  0  0  0  0  0  0
   26.3518    5.7529   -7.8519 H   0  0  0  0  0  0  0  0  0  0  0  0
   28.0706    8.6260  -10.5559 H   0  0  0  0  0  0  0  0  0  0  0  0
   23.3170   11.5578   -7.9755 H   0  0  0  0  0  0  0  0  0  0  0  0
   26.3397    9.8376  -12.1589 H   0  0  0  0  0  0  0  0  0  0  0  0
   27.8071   12.9608   -9.5694 H   0  0  0  0  0  0  0  0  0  0  0  0
   28.0679   10.4404  -13.8569 H   0  0  0  0  0  0  0  0  0  0  0  0
   30.0097   12.0540  -14.4917 H   0  0  0  0  0  0  0  0  0  0  0  0
   31.3181   14.9409  -11.5692 H   0  0  0  0  0  0  0  0  0  0  0  0
   29.6841   13.5545   -8.8523 H   0  0  0  0  0  0  0  0  0  0  0  0
   30.2664   15.1176   -9.5189 H   0  0  0  0  0  0  0  0  0  0  0  0
   28.5103   14.7397   -9.5189 H   0  0  0  0  0  0  0  0  0  0  0  0
 11 12  2  0
 11 13  1  0
 11 10  1  0
 12 16  1  0
 13 14  2  0
 14 15  1  0
 14 20  1  0
 15 17  1  0
 15 16  2  0
 17 18  2  0
 18 19  1  0
 19 20  2  0
 20 21  1  0
  1  2  2  0
  1  3  1  0
  2  6  1  0
  3  4  2  0
  4  5  1  0
  4  7  1  0
  5  6  2  0
  5 10  1  0
  7  8  2  0
  8  9  1  0
  9 10  2  0
  1 22  1  0
  6 23  1  0
  8 24  1  0
 12 25  1  0
 13 26  1  0
 16 27  1  0
 17 28  1  0
 19 29  1  0
 21 30  1  1
 21 31  1  0
 21 32  1  0
M  END
>  <Pose ID>  (9)
18

>  <Score>  (9)
-8.419341087341309

>  <smiles>  (9)
Cc1cncc2ccc(-c3ncnc4ncncc34)cc12

$$$$

     RDKit          3D

 38 41  0  0  0  0  0  0  0  0999 V2000
   27.4500    8.0980   -9.6950 C   0  0  0  0  0  0  0  0  0  0  0  0
   26.9660    7.0980   -8.8670 N   0  0  0  0  0  0  0  0  0  0  0  0
   26.0560    7.4040   -7.8660 C   0  0  0  0  0  0  0  0  0  0  0  0
   25.6280    8.7150   -7.6920 C   0  0  0  0  0  0  0  0  0  0  0  0
   24.7430    8.9830   -6.6190 C   0  0  0  0  0  0  0  0  0  0  0  0
   24.2860    7.9520   -5.8040 C   0  0  0  0  0  0  0  0  0  0  0  0
   24.7130    6.6490   -6.0320 C   0  0  0  0  0  0  0  0  0  0  0  0
   25.5910    6.3740   -7.0690 C   0  0  0  0  0  0  0  0  0  0  0  0
   27.0240    9.4110   -9.5240 C   0  0  0  0  0  0  0  0  0  0  0  0
   26.1110    9.7200   -8.5200 C   0  0  0  0  0  0  0  0  0  0  0  0
   28.3520    7.7990  -10.6870 N   0  0  0  0  0  0  0  0  0  0  0  0
   28.9120    8.6760  -11.5130 C   0  0  0  0  0  0  0  0  0  0  0  0
   30.2900    8.9230  -11.6100 N   0  0  0  0  0  0  0  0  0  0  0  0
   30.3940    9.8800  -12.5410 O   0  0  0  0  0  0  0  0  0  0  0  0
   29.2610   10.2310  -13.0180 C   0  0  0  0  0  0  0  0  0  0  0  0
   28.2780    9.4440  -12.4030 C   0  0  0  0  0  0  0  0  0  0  0  0
   27.3560   10.5870  -10.2190 C   0  0  0  0  0  0  0  0  0  0  0  0
   28.6590   10.9340  -10.6080 N   0  0  0  0  0  0  0  0  0  0  0  0
   28.5750   12.0110  -11.3080 N   0  0  0  0  0  0  0  0  0  0  0  0
   26.5480   11.5420  -10.7960 C   0  0  0  0  0  0  0  0  0  0  0  0
   27.3580   12.4890  -11.4170 C   0  0  0  0  0  0  0  0  0  0  0  0
   29.8400   12.7650  -11.9060 C   0  0  1  0  0  0  0  0  0  0  0  0
   25.6460   11.1420   -8.3330 C   0  0  1  0  0  0  0  0  0  0  0  0
   24.4141   10.0152   -6.4284 H   0  0  0  0  0  0  0  0  0  0  0  0
   23.5885    8.1676   -4.9812 H   0  0  0  0  0  0  0  0  0  0  0  0
   24.3531    5.8334   -5.3875 H   0  0  0  0  0  0  0  0  0  0  0  0
   25.9166    5.3403   -7.2572 H   0  0  0  0  0  0  0  0  0  0  0  0
   28.6169    6.8101  -10.8001 H   0  0  0  0  0  0  0  0  0  0  0  0
   29.0888   11.0104  -13.7749 H   0  0  0  0  0  0  0  0  0  0  0  0
   27.1981    9.4563  -12.6119 H   0  0  0  0  0  0  0  0  0  0  0  0
   25.4484   11.5543  -10.7704 H   0  0  0  0  0  0  0  0  0  0  0  0
   27.0464   13.4301  -11.8937 H   0  0  0  0  0  0  0  0  0  0  0  0
   30.4670   13.1387  -11.0831 H   0  0  0  0  0  0  0  0  0  0  0  0
   30.4241   12.0676  -12.5244 H   0  0  0  0  0  0  0  0  0  0  0  0
   29.5044   13.6105  -12.5244 H   0  0  0  0  0  0  0  0  0  0  0  0
   25.5729   11.3656   -7.2584 H   0  0  0  0  0  0  0  0  0  0  0  0
   26.3666   11.8281   -8.8021 H   0  0  0  0  0  0  0  0  0  0  0  0
   24.6593   11.2698   -8.8021 H   0  0  0  0  0  0  0  0  0  0  0  0
  1 11  1  0
  1  9  1  0
  1  2  2  0
  2  3  1  0
  3  4  2  0
  3  8  1  0
  4 10  1  0
  4  5  1  0
  5  6  2  0
  6  7  1  0
  7  8  2  0
  9 17  1  0
  9 10  2  0
 10 23  1  0
 11 12  1  0
 12 16  1  0
 12 13  2  0
 13 14  1  0
 14 15  1  0
 15 16  2  0
 17 20  1  0
 17 18  2  0
 18 19  1  0
 19 22  1  0
 19 21  1  0
 20 21  2  0
  5 24  1  0
  6 25  1  0
  7 26  1  0
  8 27  1  0
 11 28  1  0
 15 29  1  0
 16 30  1  0
 20 31  1  0
 21 32  1  0
 22 33  1  1
 22 34  1  0
 22 35  1  0
 23 36  1  1
 23 37  1  0
 23 38  1  0
M  END
>  <Pose ID>  (10)
17

>  <Score>  (10)
-8.410187721252441

>  <smiles>  (10)
Cc1c(-c2ccn(C)n2)c(Nc2ccon2)nc2ccccc12

$$$$

     RDKit          3D

 31 34  0  0  0  0  0  0  0  0999 V2000
   27.2060    8.2570   -9.5720 C   0  0  0  0  0  0  0  0  0  0  0  0
   27.1160    7.0690   -8.8540 N   0  0  0  0  0  0  0  0  0  0  0  0
   26.2170    6.9620   -7.8010 C   0  0  0  0  0  0  0  0  0  0  0  0
   25.4090    8.0420   -7.4640 C   0  0  0  0  0  0  0  0  0  0  0  0
   25.4970    9.2280   -8.1830 N   0  0  0  0  0  0  0  0  0  0  0  0
   26.3980    9.3360   -9.2360 C   0  0  0  0  0  0  0  0  0  0  0  0
   24.4580    8.1120   -6.4520 C   0  0  0  0  0  0  0  0  0  0  0  0
   24.1700    7.0180   -5.6430 C   0  0  0  0  0  0  0  0  0  0  0  0
   23.7640    9.3030   -6.2770 C   0  0  0  0  0  0  0  0  0  0  0  0
   23.1920    7.1150   -4.6620 N   0  0  0  0  0  0  0  0  0  0  0  0
   22.4980    8.3080   -4.4890 C   0  0  0  0  0  0  0  0  0  0  0  0
   24.4000   10.1210   -7.4250 N   0  0  0  0  0  0  0  0  0  0  0  0
   22.7840    9.4010   -5.2960 C   0  0  0  0  0  0  0  0  0  0  0  0
   28.1160    8.3650  -10.6400 C   0  0  0  0  0  0  0  0  0  0  0  0
   29.1730    9.2680  -10.6360 O   0  0  0  0  0  0  0  0  0  0  0  0
   29.7550    9.0490  -11.8370 C   0  0  0  0  0  0  0  0  0  0  0  0
   29.1180    8.0760  -12.5490 N   0  0  0  0  0  0  0  0  0  0  0  0
   28.0740    7.6200  -11.8020 C   0  0  0  0  0  0  0  0  0  0  0  0
   22.0310   10.6970   -5.1080 C   0  0  1  0  0  0  0  0  0  0  0  0
   26.4980   10.6250  -10.0140 C   0  0  1  0  0  0  0  0  0  0  0  0
   26.1442    6.0225   -7.2334 H   0  0  0  0  0  0  0  0  0  0  0  0
   24.7179    6.0742   -5.7805 H   0  0  0  0  0  0  0  0  0  0  0  0
   21.7225    8.3855   -3.7127 H   0  0  0  0  0  0  0  0  0  0  0  0
   30.6403    9.5931  -12.1979 H   0  0  0  0  0  0  0  0  0  0  0  0
   27.3548    6.8309  -12.0666 H   0  0  0  0  0  0  0  0  0  0  0  0
   21.9131   10.9000   -4.0333 H   0  0  0  0  0  0  0  0  0  0  0  0
   22.5924   11.5186   -5.5769 H   0  0  0  0  0  0  0  0  0  0  0  0
   21.0392   10.6162   -5.5769 H   0  0  0  0  0  0  0  0  0  0  0  0
   26.5637   11.4714   -9.3144 H   0  0  0  0  0  0  0  0  0  0  0  0
   27.3971   10.6022  -10.6474 H   0  0  0  0  0  0  0  0  0  0  0  0
   25.6062   10.7411  -10.6474 H   0  0  0  0  0  0  0  0  0  0  0  0
  1 14  1  0
  1  6  2  0
  1  2  1  0
  2  3  2  0
  3  4  1  0
  4  5  1  0
  4  7  2  0
  5  6  1  0
  5 12  1  0
  6 20  1  0
  7  9  1  0
  7  8  1  0
  8 10  2  0
  9 12  2  0
  9 13  1  0
 10 11  1  0
 11 13  2  0
 13 19  1  0
 14 18  2  0
 14 15  1  0
 15 16  1  0
 16 17  2  0
 17 18  1  0
  3 21  1  0
  8 22  1  0
 11 23  1  0
 16 24  1  0
 18 25  1  0
 19 26  1  1
 19 27  1  0
 19 28  1  0
 20 29  1  1
 20 30  1  0
 20 31  1  0
M  END
>  <Pose ID>  (11)
82

>  <Score>  (11)
-8.394512176513672

>  <smiles>  (11)
Cc1cncc2c1nn1c(C)c(-c3cnco3)ncc21

$$$$

     RDKit          3D

 29 32  0  0  0  0  0  0  0  0999 V2000
   26.3100    6.7990   -8.2010 C   0  0  0  0  0  0  0  0  0  0  0  0
   27.2990    7.1300   -9.1200 N   0  0  0  0  0  0  0  0  0  0  0  0
   25.3220    7.7220   -7.8810 N   0  0  0  0  0  0  0  0  0  0  0  0
   25.3140    8.9130   -8.4680 C   0  0  0  0  0  0  0  0  0  0  0  0
   26.2180    9.4620   -9.3680 C   0  0  0  0  0  0  0  0  0  0  0  0
   27.2970    8.3830   -9.7210 C   0  0  0  0  0  0  0  0  0  0  0  0
   24.2510    9.6760   -7.9980 N   0  0  0  0  0  0  0  0  0  0  0  0
   24.0920   10.9880   -8.4280 C   0  0  0  0  0  0  0  0  0  0  0  0
   24.9970   11.5370   -9.3300 N   0  0  0  0  0  0  0  0  0  0  0  0
   26.0620   10.7880   -9.8020 C   0  0  0  0  0  0  0  0  0  0  0  0
   26.9790   11.3350  -10.7500 C   0  0  0  0  0  0  0  0  0  0  0  0
   27.0710   10.6120  -11.9350 C   0  0  0  0  0  0  0  0  0  0  0  0
   27.8630   12.3780  -10.5030 C   0  0  0  0  0  0  0  0  0  0  0  0
   28.7980   12.6390  -11.3570 C   0  0  0  0  0  0  0  0  0  0  0  0
   28.9550   12.0260  -12.5940 C   0  0  0  0  0  0  0  0  0  0  0  0
   28.0480   10.9300  -12.8700 C   0  0  0  0  0  0  0  0  0  0  0  0
   29.9550   12.4520  -13.4590 C   0  0  0  0  0  0  0  0  0  0  0  0
   30.7990   13.4910  -13.0880 N   0  0  0  0  0  0  0  0  0  0  0  0
   30.6430   14.1050  -11.8510 C   0  0  0  0  0  0  0  0  0  0  0  0
   29.6430   13.6780  -10.9850 C   0  0  0  0  0  0  0  0  0  0  0  0
   26.3096    5.8063   -7.7271 H   0  0  0  0  0  0  0  0  0  0  0  0
   28.0726    8.6230  -10.4632 H   0  0  0  0  0  0  0  0  0  0  0  0
   23.2513   11.5915   -8.0553 H   0  0  0  0  0  0  0  0  0  0  0  0
   26.3695    9.7878  -12.1318 H   0  0  0  0  0  0  0  0  0  0  0  0
   27.7680   12.9783   -9.5861 H   0  0  0  0  0  0  0  0  0  0  0  0
   28.1319   10.3583  -13.8060 H   0  0  0  0  0  0  0  0  0  0  0  0
   30.0786   11.9663  -14.4382 H   0  0  0  0  0  0  0  0  0  0  0  0
   31.3106   14.9285  -11.5574 H   0  0  0  0  0  0  0  0  0  0  0  0
   29.5204   14.1625  -10.0051 H   0  0  0  0  0  0  0  0  0  0  0  0
  1  2  2  0
  1  3  1  0
  2  6  1  0
  3  4  2  0
  4  5  1  0
  4  7  1  0
  5 10  1  0
  5  6  2  0
  7  8  2  0
  8  9  1  0
  9 10  2  0
 10 11  1  0
 11 12  2  0
 11 13  1  0
 12 16  1  0
 13 14  2  0
 14 15  1  0
 14 20  1  0
 15 17  1  0
 15 16  2  0
 17 18  2  0
 18 19  1  0
 19 20  2  0
  1 21  1  0
  6 22  1  0
  8 23  1  0
 12 24  1  0
 13 25  1  0
 16 26  1  0
 17 27  1  0
 19 28  1  0
 20 29  1  0
M  END
>  <Pose ID>  (12)
17

>  <Score>  (12)
-8.351569175720215

>  <smiles>  (12)
c1cc2cc(-c3ncnc4ncncc34)ccc2cn1

$$$$

     RDKit          3D

 28 31  0  0  0  0  0  0  0  0999 V2000
   27.2180    8.1800   -9.5760 C   0  0  0  0  0  0  0  0  0  0  0  0
   27.0670    7.0480   -8.7810 N   0  0  0  0  0  0  0  0  0  0  0  0
   26.1140    7.0340   -7.7690 C   0  0  0  0  0  0  0  0  0  0  0  0
   25.3130    8.1500   -7.5510 C   0  0  0  0  0  0  0  0  0  0  0  0
   25.4630    9.2790   -8.3470 N   0  0  0  0  0  0  0  0  0  0  0  0
   26.4170    9.2950   -9.3580 C   0  0  0  0  0  0  0  0  0  0  0  0
   24.3150    8.3080   -6.5960 C   0  0  0  0  0  0  0  0  0  0  0  0
   23.9660    7.2810   -5.7270 C   0  0  0  0  0  0  0  0  0  0  0  0
   23.6410    9.5230   -6.5430 C   0  0  0  0  0  0  0  0  0  0  0  0
   22.9440    7.4660   -4.8070 N   0  0  0  0  0  0  0  0  0  0  0  0
   22.2680    8.6800   -4.7540 C   0  0  0  0  0  0  0  0  0  0  0  0
   24.3490   10.2440   -7.7110 N   0  0  0  0  0  0  0  0  0  0  0  0
   22.6160    9.7080   -5.6220 C   0  0  0  0  0  0  0  0  0  0  0  0
   28.1810    8.1940  -10.5990 C   0  0  0  0  0  0  0  0  0  0  0  0
   29.2560    9.0760  -10.6080 O   0  0  0  0  0  0  0  0  0  0  0  0
   28.2260    7.3930  -11.7050 N   0  0  0  0  0  0  0  0  0  0  0  0
   29.9160    8.7530  -11.7700 C   0  0  0  0  0  0  0  0  0  0  0  0
   29.2950    7.7250  -12.4620 C   0  0  0  0  0  0  0  0  0  0  0  0
   26.5820   10.5230  -10.2190 C   0  0  1  0  0  0  0  0  0  0  0  0
   25.9933    6.1396   -7.1401 H   0  0  0  0  0  0  0  0  0  0  0  0
   24.5006    6.3205   -5.7687 H   0  0  0  0  0  0  0  0  0  0  0  0
   21.4576    8.8267   -4.0248 H   0  0  0  0  0  0  0  0  0  0  0  0
   22.0806   10.6680   -5.5804 H   0  0  0  0  0  0  0  0  0  0  0  0
   30.8336    9.2540  -12.1121 H   0  0  0  0  0  0  0  0  0  0  0  0
   29.6046    7.2775  -13.4180 H   0  0  0  0  0  0  0  0  0  0  0  0
   26.7009   11.4080   -9.5766 H   0  0  0  0  0  0  0  0  0  0  0  0
   27.4728   10.4086  -10.8541 H   0  0  0  0  0  0  0  0  0  0  0  0
   25.6925   10.6478  -10.8541 H   0  0  0  0  0  0  0  0  0  0  0  0
  1 14  1  0
  1  6  2  0
  1  2  1  0
  2  3  2  0
  3  4  1  0
  4  5  1  0
  4  7  2  0
  5  6  1  0
  5 12  1  0
  6 19  1  0
  7  9  1  0
  7  8  1  0
  8 10  2  0
  9 12  2  0
  9 13  1  0
 10 11  1  0
 11 13  2  0
 14 16  2  0
 14 15  1  0
 15 17  1  0
 16 18  1  0
 17 18  2  0
  3 20  1  0
  8 21  1  0
 11 22  1  0
 13 23  1  0
 17 24  1  0
 18 25  1  0
 19 26  1  1
 19 27  1  0
 19 28  1  0
M  END
>  <Pose ID>  (13)
56

>  <Score>  (13)
-8.33322525024414

>  <smiles>  (13)
Cc1c(-c2ncco2)ncc2c3cnccc3nn12

$$$$

     RDKit          3D

 36 39  0  0  0  0  0  0  0  0999 V2000
   26.1270    6.7910   -7.8450 C   0  0  0  0  0  0  0  0  0  0  0  0
   26.9940    7.1210   -8.8780 N   0  0  0  0  0  0  0  0  0  0  0  0
   25.2530    7.7450   -7.3390 N   0  0  0  0  0  0  0  0  0  0  0  0
   25.2350    8.9670   -7.8570 C   0  0  0  0  0  0  0  0  0  0  0  0
   26.0370    9.5180   -8.8490 C   0  0  0  0  0  0  0  0  0  0  0  0
   26.9870    8.4050   -9.4080 C   0  0  0  0  0  0  0  0  0  0  0  0
   24.3000    9.7580   -7.2010 N   0  0  0  0  0  0  0  0  0  0  0  0
   24.1630   11.0990   -7.5350 C   0  0  0  0  0  0  0  0  0  0  0  0
   24.9650   11.6510   -8.5300 N   0  0  0  0  0  0  0  0  0  0  0  0
   25.9030   10.8750   -9.1870 C   0  0  0  0  0  0  0  0  0  0  0  0
   26.7110   11.4270  -10.2290 C   0  0  0  0  0  0  0  0  0  0  0  0
   26.5900   10.7710  -11.4500 C   0  0  0  0  0  0  0  0  0  0  0  0
   27.6840   12.4040  -10.0590 C   0  0  0  0  0  0  0  0  0  0  0  0
   28.5030   12.6630  -11.0230 C   0  0  0  0  0  0  0  0  0  0  0  0
   28.4460   12.1170  -12.3000 C   0  0  0  0  0  0  0  0  0  0  0  0
   27.4440   11.0900  -12.4980 C   0  0  0  0  0  0  0  0  0  0  0  0
   29.3400   12.5390  -13.2760 C   0  0  0  0  0  0  0  0  0  0  0  0
   30.2900   13.5070  -12.9790 N   0  0  0  0  0  0  0  0  0  0  0  0
   30.3480   14.0540  -11.7020 C   0  0  0  0  0  0  0  0  0  0  0  0
   29.4560   13.6310  -10.7250 C   0  0  0  0  0  0  0  0  0  0  0  0
   27.1460   10.3130  -13.5950 O   0  0  0  0  0  0  0  0  0  0  0  0
   26.1550   10.9800  -14.3650 C   0  0  1  0  0  0  0  0  0  0  0  0
   29.5210   14.2230   -9.3380 C   0  0  1  0  0  0  0  0  0  0  0  0
   26.1321    5.7735   -7.4270 H   0  0  0  0  0  0  0  0  0  0  0  0
   27.6648    8.6460  -10.2402 H   0  0  0  0  0  0  0  0  0  0  0  0
   23.4223   11.7237   -7.0144 H   0  0  0  0  0  0  0  0  0  0  0  0
   25.8177    9.9995  -11.5854 H   0  0  0  0  0  0  0  0  0  0  0  0
   27.7562   12.9536   -9.1089 H   0  0  0  0  0  0  0  0  0  0  0  0
   29.2952   12.1054  -14.2860 H   0  0  0  0  0  0  0  0  0  0  0  0
   31.0999   14.8213  -11.4656 H   0  0  0  0  0  0  0  0  0  0  0  0
   25.4332   11.4658  -13.6920 H   0  0  0  0  0  0  0  0  0  0  0  0
   26.6339   11.7403  -14.9995 H   0  0  0  0  0  0  0  0  0  0  0  0
   25.6309   10.2501  -14.9995 H   0  0  0  0  0  0  0  0  0  0  0  0
   29.4328   13.4195   -8.5919 H   0  0  0  0  0  0  0  0  0  0  0  0
   30.4816   14.7424   -9.2057 H   0  0  0  0  0  0  0  0  0  0  0  0
   28.6960   14.9385   -9.2057 H   0  0  0  0  0  0  0  0  0  0  0  0
 11 12  2  0
 11 13  1  0
 11 10  1  0
 12 16  1  0
 13 14  2  0
 14 15  1  0
 14 20  1  0
 15 17  1  0
 15 16  2  0
 16 21  1  0
 17 18  2  0
 18 19  1  0
 19 20  2  0
 20 23  1  0
  1  2  2  0
  1  3  1  0
  2  6  1  0
  3  4  2  0
  4  5  1  0
  4  7  1  0
  5  6  2  0
  5 10  1  0
  7  8  2  0
  8  9  1  0
  9 10  2  0
 21 22  1  0
  1 24  1  0
  6 25  1  0
  8 26  1  0
 12 27  1  0
 13 28  1  0
 17 29  1  0
 19 30  1  0
 22 31  1  1
 22 32  1  0
 22 33  1  0
 23 34  1  1
 23 35  1  0
 23 36  1  0
M  END
>  <Pose ID>  (14)
27

>  <Score>  (14)
-8.321027755737305

>  <smiles>  (14)
COc1cc(-c2ncnc3ncncc23)cc2c(C)cncc12

$$$$

     RDKit          3D

 36 39  0  0  0  0  0  0  0  0999 V2000
   26.3780    6.8050   -8.1510 C   0  0  0  0  0  0  0  0  0  0  0  0
   27.3120    7.3360   -9.0310 N   0  0  0  0  0  0  0  0  0  0  0  0
   25.4480    7.6350   -7.5390 N   0  0  0  0  0  0  0  0  0  0  0  0
   25.4420    8.9350   -7.8110 C   0  0  0  0  0  0  0  0  0  0  0  0
   26.3010    9.6750   -8.6130 C   0  0  0  0  0  0  0  0  0  0  0  0
   27.3140    8.6990   -9.3020 C   0  0  0  0  0  0  0  0  0  0  0  0
   24.4420    9.5760   -7.0880 N   0  0  0  0  0  0  0  0  0  0  0  0
   24.3010   10.9560   -7.1660 C   0  0  0  0  0  0  0  0  0  0  0  0
   25.1620   11.6960   -7.9690 N   0  0  0  0  0  0  0  0  0  0  0  0
   26.1630   11.0700   -8.6910 C   0  0  0  0  0  0  0  0  0  0  0  0
   27.0320   11.8200   -9.5410 C   0  0  0  0  0  0  0  0  0  0  0  0
   27.0150   11.4140  -10.8720 C   0  0  0  0  0  0  0  0  0  0  0  0
   27.9680   12.7520   -9.1110 C   0  0  0  0  0  0  0  0  0  0  0  0
   28.8500   13.2020   -9.9420 C   0  0  0  0  0  0  0  0  0  0  0  0
   28.8990   12.9140  -11.3010 C   0  0  0  0  0  0  0  0  0  0  0  0
   27.9370   11.9380  -11.7700 C   0  0  0  0  0  0  0  0  0  0  0  0
   29.8530   13.5250  -12.1060 C   0  0  0  0  0  0  0  0  0  0  0  0
   30.7570   14.4230  -11.5550 N   0  0  0  0  0  0  0  0  0  0  0  0
   30.7090   14.7110  -10.1960 C   0  0  0  0  0  0  0  0  0  0  0  0
   29.7560   14.1000   -9.3900 C   0  0  0  0  0  0  0  0  0  0  0  0
   27.7390   11.3870  -13.0170 O   0  0  0  0  0  0  0  0  0  0  0  0
   28.2570   10.0870  -13.0800 C   0  0  1  0  0  0  0  0  0  0  0  0
   23.2150   11.6500   -6.3810 C   0  0  1  0  0  0  0  0  0  0  0  0
   26.3749    5.7257   -7.9385 H   0  0  0  0  0  0  0  0  0  0  0  0
   28.0451    9.1024  -10.0181 H   0  0  0  0  0  0  0  0  0  0  0  0
   26.2718   10.6783  -11.2132 H   0  0  0  0  0  0  0  0  0  0  0  0
   27.9587   13.1051   -8.0693 H   0  0  0  0  0  0  0  0  0  0  0  0
   29.8918   13.2967  -13.1814 H   0  0  0  0  0  0  0  0  0  0  0  0
   31.4251   15.4223   -9.7587 H   0  0  0  0  0  0  0  0  0  0  0  0
   29.7186   14.3272   -8.3144 H   0  0  0  0  0  0  0  0  0  0  0  0
   28.4099    9.7034  -12.0604 H   0  0  0  0  0  0  0  0  0  0  0  0
   27.5496    9.4359  -13.6145 H   0  0  0  0  0  0  0  0  0  0  0  0
   29.2183   10.1008  -13.6145 H   0  0  0  0  0  0  0  0  0  0  0  0
   23.4057   11.5281   -5.3045 H   0  0  0  0  0  0  0  0  0  0  0  0
   23.2075   12.7207   -6.6331 H   0  0  0  0  0  0  0  0  0  0  0  0
   22.2402   11.2071   -6.6331 H   0  0  0  0  0  0  0  0  0  0  0  0
 11 12  2  0
 11 13  1  0
 11 10  1  0
 12 16  1  0
 13 14  2  0
 14 15  1  0
 14 20  1  0
 15 17  1  0
 15 16  2  0
 16 21  1  0
 17 18  2  0
 18 19  1  0
 19 20  2  0
  1  2  2  0
  1  3  1  0
  2  6  1  0
  3  4  2  0
  4  5  1  0
  4  7  1  0
  5  6  2  0
  5 10  1  0
  7  8  2  0
  8  9  1  0
  8 23  1  0
  9 10  2  0
 21 22  1  0
  1 24  1  0
  6 25  1  0
 12 26  1  0
 13 27  1  0
 17 28  1  0
 19 29  1  0
 20 30  1  0
 22 31  1  1
 22 32  1  0
 22 33  1  0
 23 34  1  1
 23 35  1  0
 23 36  1  0
M  END
>  <Pose ID>  (15)
28

>  <Score>  (15)
-8.285628318786621

>  <smiles>  (15)
COc1cc(-c2nc(C)nc3ncncc23)cc2ccncc12

$$$$

     RDKit          3D

 32 34  0  0  0  0  0  0  0  0999 V2000
   28.4100    9.9450  -11.5300 C   0  0  0  0  0  0  0  0  0  0  0  0
   29.1390    8.7610  -11.5330 C   0  0  0  0  0  0  0  0  0  0  0  0
   28.7180    7.6320  -10.8470 N   0  0  0  0  0  0  0  0  0  0  0  0
   27.5040    7.6670  -10.1690 C   0  0  0  0  0  0  0  0  0  0  0  0
   26.7340    8.8240  -10.1810 C   0  0  0  0  0  0  0  0  0  0  0  0
   27.1680    9.9310  -10.8840 C   0  0  0  0  0  0  0  0  0  0  0  0
   27.1080    6.6630   -9.5560 O   0  0  0  0  0  0  0  0  0  0  0  0
   30.3570    8.6980  -12.2040 N   0  0  0  0  0  0  0  0  0  0  0  0
   30.8400    9.8150  -12.8730 C   0  0  0  0  0  0  0  0  0  0  0  0
   30.1090   10.9960  -12.8710 C   0  0  0  0  0  0  0  0  0  0  0  0
   28.8910   11.0580  -12.1880 C   0  0  0  0  0  0  0  0  0  0  0  0
   25.5310    9.1110   -9.5870 N   0  0  0  0  0  0  0  0  0  0  0  0
   25.3390    9.0390   -8.1170 C   0  0  0  0  0  0  0  0  0  0  0  0
   24.6650    7.9440   -7.5890 C   0  0  0  0  0  0  0  0  0  0  0  0
   24.4690    7.8430   -6.2170 C   0  0  0  0  0  0  0  0  0  0  0  0
   24.9480    8.8380   -5.3720 C   0  0  0  0  0  0  0  0  0  0  0  0
   25.6220    9.9330   -5.9000 C   0  0  0  0  0  0  0  0  0  0  0  0
   25.8180   10.0330   -7.2720 C   0  0  0  0  0  0  0  0  0  0  0  0
   26.5500   11.2210   -7.8450 C   0  0  1  0  0  0  0  0  0  0  0  0
   29.2960    6.7795  -10.8396 H   0  0  0  0  0  0  0  0  0  0  0  0
   26.5237   10.8210  -10.9374 H   0  0  0  0  0  0  0  0  0  0  0  0
   31.8017    9.7644  -13.4046 H   0  0  0  0  0  0  0  0  0  0  0  0
   30.4874   11.8799  -13.4053 H   0  0  0  0  0  0  0  0  0  0  0  0
   28.3154   11.9953  -12.1752 H   0  0  0  0  0  0  0  0  0  0  0  0
   24.7352    9.3854  -10.1805 H   0  0  0  0  0  0  0  0  0  0  0  0
   24.2865    7.1569   -8.2577 H   0  0  0  0  0  0  0  0  0  0  0  0
   23.9352    6.9764   -5.7997 H   0  0  0  0  0  0  0  0  0  0  0  0
   24.7936    8.7586   -4.2858 H   0  0  0  0  0  0  0  0  0  0  0  0
   26.0003   10.7205   -5.2316 H   0  0  0  0  0  0  0  0  0  0  0  0
   26.9346   11.8452   -7.0249 H   0  0  0  0  0  0  0  0  0  0  0  0
   27.3892   10.8709   -8.4640 H   0  0  0  0  0  0  0  0  0  0  0  0
   25.8600   11.8132   -8.4640 H   0  0  0  0  0  0  0  0  0  0  0  0
  1 11  1  0
  1  2  2  0
  1  6  1  0
  2  8  1  0
  2  3  1  0
  3  4  1  0
  4  5  1  0
  4  7  2  0
  5  6  2  0
  5 12  1  0
  8  9  2  0
  9 10  1  0
 10 11  2  0
 12 13  1  0
 13 14  2  0
 13 18  1  0
 14 15  1  0
 15 16  2  0
 16 17  1  0
 17 18  2  0
 18 19  1  0
  3 20  1  0
  6 21  1  0
  9 22  1  0
 10 23  1  0
 11 24  1  0
 12 25  1  0
 14 26  1  0
 15 27  1  0
 16 28  1  0
 17 29  1  0
 19 30  1  1
 19 31  1  0
 19 32  1  0
M  END
>  <Pose ID>  (16)
183

>  <Score>  (16)
-8.283584594726562

>  <smiles>  (16)
Cc1ccccc1Nc1cc2cccnc2[nH]c1=O

$$$$

     RDKit          3D

 36 39  0  0  0  0  0  0  0  0999 V2000
   26.3410    6.6560   -8.4630 C   0  0  0  0  0  0  0  0  0  0  0  0
   27.2690    7.0360   -9.4270 N   0  0  0  0  0  0  0  0  0  0  0  0
   25.4030    7.5710   -8.0040 N   0  0  0  0  0  0  0  0  0  0  0  0
   25.3830    8.8030   -8.4970 C   0  0  0  0  0  0  0  0  0  0  0  0
   26.2330    9.4010   -9.4180 C   0  0  0  0  0  0  0  0  0  0  0  0
   27.2560    8.3310   -9.9300 C   0  0  0  0  0  0  0  0  0  0  0  0
   24.3760    9.5500   -7.8930 N   0  0  0  0  0  0  0  0  0  0  0  0
   24.2210   10.8940   -8.2110 C   0  0  0  0  0  0  0  0  0  0  0  0
   25.0720   11.4910   -9.1350 N   0  0  0  0  0  0  0  0  0  0  0  0
   26.0800   10.7590   -9.7390 C   0  0  0  0  0  0  0  0  0  0  0  0
   26.9390   11.3580  -10.7100 C   0  0  0  0  0  0  0  0  0  0  0  0
   26.9260   10.7270  -11.9480 C   0  0  0  0  0  0  0  0  0  0  0  0
   27.8660   12.3610  -10.4510 C   0  0  0  0  0  0  0  0  0  0  0  0
   28.7420   12.6670  -11.3510 C   0  0  0  0  0  0  0  0  0  0  0  0
   28.7930   12.1480  -12.6380 C   0  0  0  0  0  0  0  0  0  0  0  0
   27.8410   11.0950  -12.9270 C   0  0  0  0  0  0  0  0  0  0  0  0
   29.7380   12.6180  -13.5420 C   0  0  0  0  0  0  0  0  0  0  0  0
   30.6330   13.6090  -13.1580 N   0  0  0  0  0  0  0  0  0  0  0  0
   30.5830   14.1300  -11.8700 C   0  0  0  0  0  0  0  0  0  0  0  0
   29.6380   13.6590  -10.9670 C   0  0  0  0  0  0  0  0  0  0  0  0
   28.0450    8.9240  -10.8910 O   0  0  0  0  0  0  0  0  0  0  0  0
   29.1870    8.1140  -11.3350 C   0  0  1  0  0  0  0  0  0  0  0  0
   29.5840   14.2230   -9.5690 C   0  0  1  0  0  0  0  0  0  0  0  0
   26.3503    5.6308   -8.0644 H   0  0  0  0  0  0  0  0  0  0  0  0
   23.4262   11.4849   -7.7324 H   0  0  0  0  0  0  0  0  0  0  0  0
   26.1905    9.9352  -12.1533 H   0  0  0  0  0  0  0  0  0  0  0  0
   27.8542   12.8906   -9.4869 H   0  0  0  0  0  0  0  0  0  0  0  0
   27.8424   10.5944  -13.9065 H   0  0  0  0  0  0  0  0  0  0  0  0
   29.7775   12.2057  -14.5610 H   0  0  0  0  0  0  0  0  0  0  0  0
   31.2913   14.9148  -11.5660 H   0  0  0  0  0  0  0  0  0  0  0  0
   29.7278    7.7304  -10.4573 H   0  0  0  0  0  0  0  0  0  0  0  0
   28.8246    7.2699  -11.9401 H   0  0  0  0  0  0  0  0  0  0  0  0
   29.8638    8.7351  -11.9401 H   0  0  0  0  0  0  0  0  0  0  0  0
   29.6625   13.4033   -8.8396 H   0  0  0  0  0  0  0  0  0  0  0  0
   30.4191   14.9241   -9.4239 H   0  0  0  0  0  0  0  0  0  0  0  0
   28.6310   14.7529   -9.4239 H   0  0  0  0  0  0  0  0  0  0  0  0
  1  2  2  0
  1  3  1  0
  2  6  1  0
  3  4  2  0
  4  5  1  0
  4  7  1  0
  5  6  2  0
  5 10  1  0
  6 21  1  0
  7  8  2  0
  8  9  1  0
  9 10  2  0
 10 11  1  0
 11 12  2  0
 11 13  1  0
 12 16  1  0
 13 14  2  0
 14 15  1  0
 14 20  1  0
 15 17  1  0
 15 16  2  0
 17 18  2  0
 18 19  1  0
 19 20  2  0
 20 23  1  0
 21 22  1  0
  1 24  1  0
  8 25  1  0
 12 26  1  0
 13 27  1  0
 16 28  1  0
 17 29  1  0
 19 30  1  0
 22 31  1  1
 22 32  1  0
 22 33  1  0
 23 34  1  1
 23 35  1  0
 23 36  1  0
M  END
>  <Pose ID>  (17)
32

>  <Score>  (17)
-8.278196334838867

>  <smiles>  (17)
COc1ncnc2ncnc(-c3ccc4cncc(C)c4c3)c12

$$$$

     RDKit          3D

 34 37  0  0  0  0  0  0  0  0999 V2000
   27.1810    8.2600   -9.5370 C   0  0  0  0  0  0  0  0  0  0  0  0
   27.1160    7.0740   -8.8130 N   0  0  0  0  0  0  0  0  0  0  0  0
   26.2160    6.9520   -7.7600 C   0  0  0  0  0  0  0  0  0  0  0  0
   25.3820    8.0160   -7.4310 C   0  0  0  0  0  0  0  0  0  0  0  0
   25.4470    9.2000   -8.1560 N   0  0  0  0  0  0  0  0  0  0  0  0
   26.3480    9.3230   -9.2080 C   0  0  0  0  0  0  0  0  0  0  0  0
   24.4270    8.0690   -6.4220 C   0  0  0  0  0  0  0  0  0  0  0  0
   24.1640    6.9740   -5.6080 C   0  0  0  0  0  0  0  0  0  0  0  0
   23.7080    9.2470   -6.2560 C   0  0  0  0  0  0  0  0  0  0  0  0
   23.1820    7.0540   -4.6310 N   0  0  0  0  0  0  0  0  0  0  0  0
   22.4610    8.2320   -4.4650 C   0  0  0  0  0  0  0  0  0  0  0  0
   24.3270   10.0730   -7.4060 N   0  0  0  0  0  0  0  0  0  0  0  0
   22.7230    9.3280   -5.2780 C   0  0  0  0  0  0  0  0  0  0  0  0
   28.0920    8.3820  -10.6010 C   0  0  0  0  0  0  0  0  0  0  0  0
   29.1280    9.3090  -10.6010 O   0  0  0  0  0  0  0  0  0  0  0  0
   28.1130    7.6570  -11.7580 N   0  0  0  0  0  0  0  0  0  0  0  0
   29.7420    9.0910  -11.8120 C   0  0  0  0  0  0  0  0  0  0  0  0
   29.1290    8.0830  -12.5410 C   0  0  0  0  0  0  0  0  0  0  0  0
   21.9410   10.6060   -5.0990 C   0  0  1  0  0  0  0  0  0  0  0  0
   21.3940    8.3200   -3.4020 C   0  0  1  0  0  0  0  0  0  0  0  0
   26.4210   10.6100   -9.9920 C   0  0  1  0  0  0  0  0  0  0  0  0
   26.1634    6.0144   -7.1872 H   0  0  0  0  0  0  0  0  0  0  0  0
   24.7349    6.0428   -5.7383 H   0  0  0  0  0  0  0  0  0  0  0  0
   30.6203    9.6528  -12.1629 H   0  0  0  0  0  0  0  0  0  0  0  0
   29.4084    7.7116  -13.5380 H   0  0  0  0  0  0  0  0  0  0  0  0
   21.8152   10.8116   -4.0257 H   0  0  0  0  0  0  0  0  0  0  0  0
   22.4850   11.4378   -5.5704 H   0  0  0  0  0  0  0  0  0  0  0  0
   20.9528   10.5003   -5.5704 H   0  0  0  0  0  0  0  0  0  0  0  0
   21.8629    8.2813   -2.4077 H   0  0  0  0  0  0  0  0  0  0  0  0
   20.8444    9.2665   -3.5116 H   0  0  0  0  0  0  0  0  0  0  0  0
   20.6967    7.4763   -3.5116 H   0  0  0  0  0  0  0  0  0  0  0  0
   26.4693   11.4608   -9.2964 H   0  0  0  0  0  0  0  0  0  0  0  0
   27.3202   10.6029  -10.6256 H   0  0  0  0  0  0  0  0  0  0  0  0
   25.5268   10.7046  -10.6256 H   0  0  0  0  0  0  0  0  0  0  0  0
  1 14  1  0
  1  6  2  0
  1  2  1  0
  2  3  2  0
  3  4  1  0
  4  5  1  0
  4  7  2  0
  5  6  1  0
  5 12  1  0
  6 21  1  0
  7  9  1  0
  7  8  1  0
  8 10  2  0
  9 12  2  0
  9 13  1  0
 10 11  1  0
 11 13  2  0
 11 20  1  0
 13 19  1  0
 14 16  2  0
 14 15  1  0
 15 17  1  0
 16 18  1  0
 17 18  2  0
  3 22  1  0
  8 23  1  0
 17 24  1  0
 18 25  1  0
 19 26  1  1
 19 27  1  0
 19 28  1  0
 20 29  1  1
 20 30  1  0
 20 31  1  0
 21 32  1  1
 21 33  1  0
 21 34  1  0
M  END
>  <Pose ID>  (18)
67

>  <Score>  (18)
-8.276147842407227

>  <smiles>  (18)
Cc1ncc2c(nn3c(C)c(-c4ncco4)ncc23)c1C

$$$$

     RDKit          3D

 35 38  0  0  0  0  0  0  0  0999 V2000
   27.4550    8.1030   -9.6890 C   0  0  0  0  0  0  0  0  0  0  0  0
   26.9740    7.0930   -8.8700 N   0  0  0  0  0  0  0  0  0  0  0  0
   26.0810    7.3890   -7.8520 C   0  0  0  0  0  0  0  0  0  0  0  0
   25.6660    8.7010   -7.6500 C   0  0  0  0  0  0  0  0  0  0  0  0
   24.7980    8.9580   -6.5610 C   0  0  0  0  0  0  0  0  0  0  0  0
   24.3440    7.9170   -5.7560 C   0  0  0  0  0  0  0  0  0  0  0  0
   24.7570    6.6150   -6.0120 C   0  0  0  0  0  0  0  0  0  0  0  0
   25.6190    6.3500   -7.0650 C   0  0  0  0  0  0  0  0  0  0  0  0
   27.0410    9.4160   -9.4900 C   0  0  0  0  0  0  0  0  0  0  0  0
   26.1450    9.7150   -8.4690 C   0  0  0  0  0  0  0  0  0  0  0  0
   28.3400    7.8130  -10.6980 N   0  0  0  0  0  0  0  0  0  0  0  0
   28.8960    8.6990  -11.5170 C   0  0  0  0  0  0  0  0  0  0  0  0
   30.2740    8.9370  -11.6300 N   0  0  0  0  0  0  0  0  0  0  0  0
   30.3730    9.9080  -12.5460 O   0  0  0  0  0  0  0  0  0  0  0  0
   29.2360   10.2760  -13.0020 C   0  0  0  0  0  0  0  0  0  0  0  0
   28.2560    9.4860  -12.3860 C   0  0  0  0  0  0  0  0  0  0  0  0
   27.3730   10.6000  -10.1710 C   0  0  0  0  0  0  0  0  0  0  0  0
   28.6730   10.9440  -10.5720 N   0  0  0  0  0  0  0  0  0  0  0  0
   28.5880   12.0330  -11.2530 N   0  0  0  0  0  0  0  0  0  0  0  0
   26.5650   11.5710  -10.7210 C   0  0  0  0  0  0  0  0  0  0  0  0
   27.3730   12.5220  -11.3380 C   0  0  0  0  0  0  0  0  0  0  0  0
   29.8510   12.7870  -11.8570 C   0  0  1  0  0  0  0  0  0  0  0  0
   24.4797    9.9894   -6.3493 H   0  0  0  0  0  0  0  0  0  0  0  0
   23.6603    8.1244   -4.9196 H   0  0  0  0  0  0  0  0  0  0  0  0
   24.3986    5.7916   -5.3768 H   0  0  0  0  0  0  0  0  0  0  0  0
   25.9343    5.3170   -7.2737 H   0  0  0  0  0  0  0  0  0  0  0  0
   25.8164   10.7528   -8.3106 H   0  0  0  0  0  0  0  0  0  0  0  0
   28.5946    6.8239  -10.8313 H   0  0  0  0  0  0  0  0  0  0  0  0
   29.0594   11.0691  -13.7435 H   0  0  0  0  0  0  0  0  0  0  0  0
   27.1735    9.5094  -12.5799 H   0  0  0  0  0  0  0  0  0  0  0  0
   25.4660   11.5914  -10.6795 H   0  0  0  0  0  0  0  0  0  0  0  0
   27.0620   13.4728  -11.7955 H   0  0  0  0  0  0  0  0  0  0  0  0
   30.4805   13.1628  -11.0369 H   0  0  0  0  0  0  0  0  0  0  0  0
   30.4335   12.0887  -12.4760 H   0  0  0  0  0  0  0  0  0  0  0  0
   29.5127   13.6311  -12.4760 H   0  0  0  0  0  0  0  0  0  0  0  0
  1 11  1  0
  1  9  1  0
  1  2  2  0
  2  3  1  0
  3  4  2  0
  3  8  1  0
  4 10  1  0
  4  5  1  0
  5  6  2  0
  6  7  1  0
  7  8  2  0
  9 17  1  0
  9 10  2  0
 11 12  1  0
 12 16  1  0
 12 13  2  0
 13 14  1  0
 14 15  1  0
 15 16  2  0
 17 20  1  0
 17 18  2  0
 18 19  1  0
 19 22  1  0
 19 21  1  0
 20 21  2  0
  5 23  1  0
  6 24  1  0
  7 25  1  0
  8 26  1  0
 10 27  1  0
 11 28  1  0
 15 29  1  0
 16 30  1  0
 20 31  1  0
 21 32  1  0
 22 33  1  1
 22 34  1  0
 22 35  1  0
M  END
>  <Pose ID>  (19)
14

>  <Score>  (19)
-8.204431533813477

>  <smiles>  (19)
Cn1ccc(-c2cc3ccccc3nc2Nc2ccon2)n1

$$$$

     RDKit          3D

 36 39  0  0  0  0  0  0  0  0999 V2000
   26.2820    6.7050   -8.2850 C   0  0  0  0  0  0  0  0  0  0  0  0
   27.2260    7.0720   -9.2380 N   0  0  0  0  0  0  0  0  0  0  0  0
   25.3300    7.6230   -7.8620 N   0  0  0  0  0  0  0  0  0  0  0  0
   25.3130    8.8450   -8.3780 C   0  0  0  0  0  0  0  0  0  0  0  0
   26.1780    9.4310   -9.2950 C   0  0  0  0  0  0  0  0  0  0  0  0
   27.2160    8.3570   -9.7660 C   0  0  0  0  0  0  0  0  0  0  0  0
   24.2910    9.5970   -7.8090 N   0  0  0  0  0  0  0  0  0  0  0  0
   24.1340   10.9340   -8.1550 C   0  0  0  0  0  0  0  0  0  0  0  0
   25.0000   11.5190   -9.0740 N   0  0  0  0  0  0  0  0  0  0  0  0
   26.0230   10.7820   -9.6440 C   0  0  0  0  0  0  0  0  0  0  0  0
   26.8980   11.3660  -10.6100 C   0  0  0  0  0  0  0  0  0  0  0  0
   26.9130   10.7120  -11.8360 C   0  0  0  0  0  0  0  0  0  0  0  0
   27.8140   12.3800  -10.3520 C   0  0  0  0  0  0  0  0  0  0  0  0
   28.7060   12.6740  -11.2400 C   0  0  0  0  0  0  0  0  0  0  0  0
   28.7840   12.1310  -12.5170 C   0  0  0  0  0  0  0  0  0  0  0  0
   27.8440   11.0670  -12.8040 C   0  0  0  0  0  0  0  0  0  0  0  0
   29.7450   12.5890  -13.4100 C   0  0  0  0  0  0  0  0  0  0  0  0
   30.6260   13.5920  -13.0280 N   0  0  0  0  0  0  0  0  0  0  0  0
   30.5490   14.1380  -11.7520 C   0  0  0  0  0  0  0  0  0  0  0  0
   29.5890   13.6780  -10.8580 C   0  0  0  0  0  0  0  0  0  0  0  0
   28.0200    8.9360  -10.7220 O   0  0  0  0  0  0  0  0  0  0  0  0
   29.1750    8.1240  -11.1290 C   0  0  1  0  0  0  0  0  0  0  0  0
   29.7210    8.9070  -12.3470 C   0  0  1  0  0  0  0  0  0  0  0  0
   26.2895    5.6878   -7.8664 H   0  0  0  0  0  0  0  0  0  0  0  0
   23.3265   11.5288   -7.7031 H   0  0  0  0  0  0  0  0  0  0  0  0
   26.1864    9.9118  -12.0403 H   0  0  0  0  0  0  0  0  0  0  0  0
   27.7797   12.9280   -9.3989 H   0  0  0  0  0  0  0  0  0  0  0  0
   27.8670   10.5480  -13.7736 H   0  0  0  0  0  0  0  0  0  0  0  0
   29.8079   12.1570  -14.4197 H   0  0  0  0  0  0  0  0  0  0  0  0
   31.2468   14.9330  -11.4501 H   0  0  0  0  0  0  0  0  0  0  0  0
   29.5278   14.1086   -9.8476 H   0  0  0  0  0  0  0  0  0  0  0  0
   29.9237    8.0664  -10.3252 H   0  0  0  0  0  0  0  0  0  0  0  0
   28.9181    7.0792  -11.3581 H   0  0  0  0  0  0  0  0  0  0  0  0
   30.3173    9.7621  -11.9959 H   0  0  0  0  0  0  0  0  0  0  0  0
   30.3536    8.2440  -12.9555 H   0  0  0  0  0  0  0  0  0  0  0  0
   28.8802    9.2715  -12.9555 H   0  0  0  0  0  0  0  0  0  0  0  0
  1  2  2  0
  1  3  1  0
  2  6  1  0
  3  4  2  0
  4  5  1  0
  4  7  1  0
  5  6  2  0
  5 10  1  0
  6 21  1  0
  7  8  2  0
  8  9  1  0
  9 10  2  0
 10 11  1  0
 11 12  2  0
 11 13  1  0
 12 16  1  0
 13 14  2  0
 14 15  1  0
 14 20  1  0
 15 17  1  0
 15 16  2  0
 17 18  2  0
 18 19  1  0
 19 20  2  0
 21 22  1  0
 22 23  1  0
  1 24  1  0
  8 25  1  0
 12 26  1  0
 13 27  1  0
 16 28  1  0
 17 29  1  0
 19 30  1  0
 20 31  1  0
 22 32  1  1
 22 33  1  0
 23 34  1  1
 23 35  1  0
 23 36  1  0
M  END
>  <Pose ID>  (20)
33

>  <Score>  (20)
-8.188431739807129

>  <smiles>  (20)
CCOc1ncnc2ncnc(-c3ccc4cnccc4c3)c12

$$$$

     RDKit          3D

 36 39  0  0  0  0  0  0  0  0999 V2000
   26.2490    7.2400   -7.4700 C   0  0  0  0  0  0  0  0  0  0  0  0
   27.3110    7.6940   -8.2410 N   0  0  0  0  0  0  0  0  0  0  0  0
   25.1550    8.0650   -7.2390 N   0  0  0  0  0  0  0  0  0  0  0  0
   25.1180    9.2800   -7.7730 C   0  0  0  0  0  0  0  0  0  0  0  0
   26.0770    9.9450   -8.5270 C   0  0  0  0  0  0  0  0  0  0  0  0
   27.2780    8.9730   -8.7850 C   0  0  0  0  0  0  0  0  0  0  0  0
   23.9450    9.9330   -7.4100 N   0  0  0  0  0  0  0  0  0  0  0  0
   23.7300   11.2480   -7.8010 C   0  0  0  0  0  0  0  0  0  0  0  0
   24.6900   11.9120   -8.5570 N   0  0  0  0  0  0  0  0  0  0  0  0
   25.8630   11.2750   -8.9210 C   0  0  0  0  0  0  0  0  0  0  0  0
   26.8410   11.9410   -9.7220 C   0  0  0  0  0  0  0  0  0  0  0  0
   27.1380   11.2900  -10.9150 C   0  0  0  0  0  0  0  0  0  0  0  0
   27.5970   13.0350   -9.3210 C   0  0  0  0  0  0  0  0  0  0  0  0
   28.6040   13.4130  -10.0380 C   0  0  0  0  0  0  0  0  0  0  0  0
   28.9640   12.8790  -11.2700 C   0  0  0  0  0  0  0  0  0  0  0  0
   28.1930   11.7320  -11.7040 C   0  0  0  0  0  0  0  0  0  0  0  0
   30.0230   13.4270  -11.9820 C   0  0  0  0  0  0  0  0  0  0  0  0
   30.7250   14.5080  -11.4640 N   0  0  0  0  0  0  0  0  0  0  0  0
   30.3670   15.0420  -10.2320 C   0  0  0  0  0  0  0  0  0  0  0  0
   29.3070   14.4940   -9.5180 C   0  0  0  0  0  0  0  0  0  0  0  0
   28.3050   10.9350  -12.8220 O   0  0  0  0  0  0  0  0  0  0  0  0
   28.9120    9.7120  -12.5100 C   0  0  1  0  0  0  0  0  0  0  0  0
   30.4370    9.6710  -12.7050 C   0  0  1  0  0  0  0  0  0  0  0  0
   26.2738    6.2270   -7.0420 H   0  0  0  0  0  0  0  0  0  0  0  0
   28.1161    9.3108   -9.4122 H   0  0  0  0  0  0  0  0  0  0  0  0
   22.8019   11.7636   -7.5132 H   0  0  0  0  0  0  0  0  0  0  0  0
   26.5376   10.4252  -11.2338 H   0  0  0  0  0  0  0  0  0  0  0  0
   27.3403   13.5766   -8.3986 H   0  0  0  0  0  0  0  0  0  0  0  0
   30.3063   13.0045  -12.9573 H   0  0  0  0  0  0  0  0  0  0  0  0
   30.9222   15.8983   -9.8215 H   0  0  0  0  0  0  0  0  0  0  0  0
   29.0247   14.9156   -8.5420 H   0  0  0  0  0  0  0  0  0  0  0  0
   28.6972    9.4844  -11.4554 H   0  0  0  0  0  0  0  0  0  0  0  0
   28.4939    8.9752  -13.2116 H   0  0  0  0  0  0  0  0  0  0  0  0
   30.9320    9.6577  -11.7228 H   0  0  0  0  0  0  0  0  0  0  0  0
   30.7107    8.7652  -13.2659 H   0  0  0  0  0  0  0  0  0  0  0  0
   30.7590   10.5608  -13.2659 H   0  0  0  0  0  0  0  0  0  0  0  0
 11 12  2  0
 11 13  1  0
 11 10  1  0
 12 16  1  0
 13 14  2  0
 14 15  1  0
 14 20  1  0
 15 17  1  0
 15 16  2  0
 16 21  1  0
 17 18  2  0
 18 19  1  0
 19 20  2  0
  1  2  2  0
  1  3  1  0
  2  6  1  0
  3  4  2  0
  4  5  1  0
  4  7  1  0
  5 10  1  0
  5  6  2  0
  7  8  2  0
  8  9  1  0
  9 10  2  0
 21 22  1  0
 22 23  1  0
  1 24  1  0
  6 25  1  0
  8 26  1  0
 12 27  1  0
 13 28  1  0
 17 29  1  0
 19 30  1  0
 20 31  1  0
 22 32  1  1
 22 33  1  0
 23 34  1  1
 23 35  1  0
 23 36  1  0
M  END
>  <Pose ID>  (21)
30

>  <Score>  (21)
-8.173384666442871

>  <smiles>  (21)
CCOc1cc(-c2ncnc3ncncc23)cc2ccncc12

$$$$

     RDKit          3D

 38 41  0  0  0  0  0  0  0  0999 V2000
   26.3810    6.7600   -8.3250 C   0  0  0  0  0  0  0  0  0  0  0  0
   27.3440    7.1120   -9.2610 N   0  0  0  0  0  0  0  0  0  0  0  0
   25.4080    7.6780   -7.9480 N   0  0  0  0  0  0  0  0  0  0  0  0
   25.3910    8.8860   -8.5000 C   0  0  0  0  0  0  0  0  0  0  0  0
   26.2720    9.4570   -9.4090 C   0  0  0  0  0  0  0  0  0  0  0  0
   27.3330    8.3820   -9.8250 C   0  0  0  0  0  0  0  0  0  0  0  0
   24.3470    9.6410   -7.9760 N   0  0  0  0  0  0  0  0  0  0  0  0
   24.1850   10.9660   -8.3630 C   0  0  0  0  0  0  0  0  0  0  0  0
   25.0670   11.5370   -9.2730 N   0  0  0  0  0  0  0  0  0  0  0  0
   26.1130   10.7960   -9.7980 C   0  0  0  0  0  0  0  0  0  0  0  0
   27.0060   11.3650  -10.7560 C   0  0  0  0  0  0  0  0  0  0  0  0
   27.0580   10.6780  -11.9640 C   0  0  0  0  0  0  0  0  0  0  0  0
   27.9040   12.3950  -10.5030 C   0  0  0  0  0  0  0  0  0  0  0  0
   28.8160   12.6760  -11.3760 C   0  0  0  0  0  0  0  0  0  0  0  0
   28.9320   12.0990  -12.6350 C   0  0  0  0  0  0  0  0  0  0  0  0
   28.0110   11.0180  -12.9170 C   0  0  0  0  0  0  0  0  0  0  0  0
   29.9100   12.5460  -13.5160 C   0  0  0  0  0  0  0  0  0  0  0  0
   30.7710   13.5680  -13.1390 N   0  0  0  0  0  0  0  0  0  0  0  0
   30.6550   14.1460  -11.8800 C   0  0  0  0  0  0  0  0  0  0  0  0
   29.6770   13.7000  -10.9980 C   0  0  0  0  0  0  0  0  0  0  0  0
   27.8150   13.1810   -9.2190 C   0  0  1  0  0  0  0  0  0  0  0  0
   27.6720   14.7020   -9.4760 C   0  0  1  0  0  0  0  0  0  0  0  0
   26.3230   15.1860   -9.0780 C   0  0  1  0  0  0  0  0  0  0  0  0
   26.3881    5.7535   -7.8813 H   0  0  0  0  0  0  0  0  0  0  0  0
   28.0881    8.6389  -10.5825 H   0  0  0  0  0  0  0  0  0  0  0  0
   23.3588   11.5628   -7.9492 H   0  0  0  0  0  0  0  0  0  0  0  0
   26.3447    9.8652  -12.1654 H   0  0  0  0  0  0  0  0  0  0  0  0
   28.0647   10.4738  -13.8714 H   0  0  0  0  0  0  0  0  0  0  0  0
   30.0019   12.0897  -14.5127 H   0  0  0  0  0  0  0  0  0  0  0  0
   31.3368   14.9560  -11.5816 H   0  0  0  0  0  0  0  0  0  0  0  0
   29.5846   14.1571  -10.0017 H   0  0  0  0  0  0  0  0  0  0  0  0
   26.9399   12.8335   -8.6502 H   0  0  0  0  0  0  0  0  0  0  0  0
   28.7464   13.0184   -8.6568 H   0  0  0  0  0  0  0  0  0  0  0  0
   28.4336   15.2387   -8.8912 H   0  0  0  0  0  0  0  0  0  0  0  0
   27.8082   14.8898  -10.5513 H   0  0  0  0  0  0  0  0  0  0  0  0
   26.2517   15.2116   -7.9806 H   0  0  0  0  0  0  0  0  0  0  0  0
   26.1632   16.1975   -9.4795 H   0  0  0  0  0  0  0  0  0  0  0  0
   25.5565   14.5068   -9.4795 H   0  0  0  0  0  0  0  0  0  0  0  0
 11 12  2  0
 11 13  1  0
 11 10  1  0
 12 16  1  0
 13 14  2  0
 13 21  1  0
 14 15  1  0
 14 20  1  0
 15 17  1  0
 15 16  2  0
 17 18  2  0
 18 19  1  0
 19 20  2  0
  1  2  2  0
  1  3  1  0
  2  6  1  0
  3  4  2  0
  4  5  1  0
  4  7  1  0
  5  6  2  0
  5 10  1  0
  7  8  2  0
  8  9  1  0
  9 10  2  0
 21 22  1  0
 22 23  1  0
  1 24  1  0
  6 25  1  0
  8 26  1  0
 12 27  1  0
 16 28  1  0
 17 29  1  0
 19 30  1  0
 20 31  1  0
 21 32  1  1
 21 33  1  0
 22 34  1  1
 22 35  1  0
 23 36  1  1
 23 37  1  0
 23 38  1  0
M  END
>  <Pose ID>  (22)
36

>  <Score>  (22)
-8.167701721191406

>  <smiles>  (22)
CCCc1c(-c2ncnc3ncncc23)ccc2cnccc12

$$$$

     RDKit          3D

 33 36  0  0  0  0  0  0  0  0999 V2000
   26.3060    6.7390   -8.2950 C   0  0  0  0  0  0  0  0  0  0  0  0
   27.2400    7.0890   -9.2640 N   0  0  0  0  0  0  0  0  0  0  0  0
   25.3680    7.6690   -7.8670 N   0  0  0  0  0  0  0  0  0  0  0  0
   25.3540    8.8870   -8.3950 C   0  0  0  0  0  0  0  0  0  0  0  0
   26.2110    9.4560   -9.3290 C   0  0  0  0  0  0  0  0  0  0  0  0
   27.2330    8.3690   -9.8040 C   0  0  0  0  0  0  0  0  0  0  0  0
   24.3460    9.6530   -7.8190 N   0  0  0  0  0  0  0  0  0  0  0  0
   24.1960   10.9880   -8.1760 C   0  0  0  0  0  0  0  0  0  0  0  0
   25.0540   11.5560   -9.1120 N   0  0  0  0  0  0  0  0  0  0  0  0
   26.0630   10.8050   -9.6890 C   0  0  0  0  0  0  0  0  0  0  0  0
   26.9290   11.3730  -10.6720 C   0  0  0  0  0  0  0  0  0  0  0  0
   26.9210   10.7070  -11.8920 C   0  0  0  0  0  0  0  0  0  0  0  0
   27.8570   12.3810  -10.4370 C   0  0  0  0  0  0  0  0  0  0  0  0
   28.7390   12.6590  -11.3400 C   0  0  0  0  0  0  0  0  0  0  0  0
   28.7950   12.1030  -12.6120 C   0  0  0  0  0  0  0  0  0  0  0  0
   27.8420   11.0450  -12.8760 C   0  0  0  0  0  0  0  0  0  0  0  0
   29.7470   12.5450  -13.5230 C   0  0  0  0  0  0  0  0  0  0  0  0
   30.6420   13.5440  -13.1630 N   0  0  0  0  0  0  0  0  0  0  0  0
   30.5870   14.1020  -11.8910 C   0  0  0  0  0  0  0  0  0  0  0  0
   29.6360   13.6590  -10.9800 C   0  0  0  0  0  0  0  0  0  0  0  0
   28.0290    8.9320  -10.7770 O   0  0  0  0  0  0  0  0  0  0  0  0
   29.1710    8.1070  -11.1920 C   0  0  1  0  0  0  0  0  0  0  0  0
   26.3103    5.7254   -7.8676 H   0  0  0  0  0  0  0  0  0  0  0  0
   23.4000   11.5943   -7.7190 H   0  0  0  0  0  0  0  0  0  0  0  0
   26.1847    9.9114  -12.0787 H   0  0  0  0  0  0  0  0  0  0  0  0
   27.8408   12.9384   -9.4888 H   0  0  0  0  0  0  0  0  0  0  0  0
   27.8472   10.5169  -13.8409 H   0  0  0  0  0  0  0  0  0  0  0  0
   29.7916   12.1034  -14.5295 H   0  0  0  0  0  0  0  0  0  0  0  0
   31.2957   14.8935  -11.6059 H   0  0  0  0  0  0  0  0  0  0  0  0
   29.5925   14.0997   -9.9731 H   0  0  0  0  0  0  0  0  0  0  0  0
   29.6937    7.7294  -10.3008 H   0  0  0  0  0  0  0  0  0  0  0  0
   28.8114    7.2588  -11.7930 H   0  0  0  0  0  0  0  0  0  0  0  0
   29.8633    8.7149  -11.7930 H   0  0  0  0  0  0  0  0  0  0  0  0
  1  2  2  0
  1  3  1  0
  2  6  1  0
  3  4  2  0
  4  5  1  0
  4  7  1  0
  5  6  2  0
  5 10  1  0
  6 21  1  0
  7  8  2  0
  8  9  1  0
  9 10  2  0
 10 11  1  0
 11 12  2  0
 11 13  1  0
 12 16  1  0
 13 14  2  0
 14 15  1  0
 14 20  1  0
 15 17  1  0
 15 16  2  0
 17 18  2  0
 18 19  1  0
 19 20  2  0
 21 22  1  0
  1 23  1  0
  8 24  1  0
 12 25  1  0
 13 26  1  0
 16 27  1  0
 17 28  1  0
 19 29  1  0
 20 30  1  0
 22 31  1  1
 22 32  1  0
 22 33  1  0
M  END
>  <Pose ID>  (23)
31

>  <Score>  (23)
-8.151276588439941

>  <smiles>  (23)
COc1ncnc2ncnc(-c3ccc4cnccc4c3)c12

$$$$

     RDKit          3D

 38 41  0  0  0  0  0  0  0  0999 V2000
   27.4580    8.0880   -9.7070 C   0  0  0  0  0  0  0  0  0  0  0  0
   26.9820    7.0700   -8.8950 N   0  0  0  0  0  0  0  0  0  0  0  0
   26.0980    7.3560   -7.8660 C   0  0  0  0  0  0  0  0  0  0  0  0
   25.6870    8.6670   -7.6470 C   0  0  0  0  0  0  0  0  0  0  0  0
   24.8280    8.9130   -6.5480 C   0  0  0  0  0  0  0  0  0  0  0  0
   24.3790    7.8640   -5.7510 C   0  0  0  0  0  0  0  0  0  0  0  0
   24.7870    6.5640   -6.0240 C   0  0  0  0  0  0  0  0  0  0  0  0
   25.6410    6.3090   -7.0870 C   0  0  0  0  0  0  0  0  0  0  0  0
   27.0480    9.3990   -9.4900 C   0  0  0  0  0  0  0  0  0  0  0  0
   26.1610    9.6890   -8.4590 C   0  0  0  0  0  0  0  0  0  0  0  0
   28.3350    7.8070  -10.7260 N   0  0  0  0  0  0  0  0  0  0  0  0
   28.8850    8.7010  -11.5400 C   0  0  0  0  0  0  0  0  0  0  0  0
   30.2630    8.9380  -11.6610 N   0  0  0  0  0  0  0  0  0  0  0  0
   30.3560    9.9190  -12.5670 O   0  0  0  0  0  0  0  0  0  0  0  0
   29.2160   10.2940  -13.0100 C   0  0  0  0  0  0  0  0  0  0  0  0
   28.2400    9.4990  -12.3950 C   0  0  0  0  0  0  0  0  0  0  0  0
   27.3770   10.5900  -10.1610 C   0  0  0  0  0  0  0  0  0  0  0  0
   28.6740   10.9360  -10.5690 N   0  0  0  0  0  0  0  0  0  0  0  0
   28.5850   12.0330  -11.2370 N   0  0  0  0  0  0  0  0  0  0  0  0
   26.5660   11.5680  -10.6940 C   0  0  0  0  0  0  0  0  0  0  0  0
   27.3700   12.5240  -11.3070 C   0  0  0  0  0  0  0  0  0  0  0  0
   29.8440   12.7910  -11.8430 C   0  0  1  0  0  0  0  0  0  0  0  0
   23.4500    8.1370   -4.5930 C   0  0  1  0  0  0  0  0  0  0  0  0
   24.5129    9.9425   -6.3223 H   0  0  0  0  0  0  0  0  0  0  0  0
   24.4316    5.7344   -5.3951 H   0  0  0  0  0  0  0  0  0  0  0  0
   25.9534    5.2780   -7.3093 H   0  0  0  0  0  0  0  0  0  0  0  0
   25.8356   10.7256   -8.2870 H   0  0  0  0  0  0  0  0  0  0  0  0
   28.5877    6.8191  -10.8713 H   0  0  0  0  0  0  0  0  0  0  0  0
   29.0349   11.0955  -13.7413 H   0  0  0  0  0  0  0  0  0  0  0  0
   27.1560    9.5266  -12.5799 H   0  0  0  0  0  0  0  0  0  0  0  0
   25.4674   11.5895  -10.6434 H   0  0  0  0  0  0  0  0  0  0  0  0
   27.0565   13.4799  -11.7519 H   0  0  0  0  0  0  0  0  0  0  0  0
   30.4731   13.1698  -11.0240 H   0  0  0  0  0  0  0  0  0  0  0  0
   30.4283   12.0944  -12.4622 H   0  0  0  0  0  0  0  0  0  0  0  0
   29.5018   13.6333  -12.4622 H   0  0  0  0  0  0  0  0  0  0  0  0
   23.9877    7.9790   -3.6465 H   0  0  0  0  0  0  0  0  0  0  0  0
   23.0959    9.1772   -4.6443 H   0  0  0  0  0  0  0  0  0  0  0  0
   22.5894    7.4538   -4.6443 H   0  0  0  0  0  0  0  0  0  0  0  0
  1 11  1  0
  1  9  1  0
  1  2  2  0
  2  3  1  0
  3  4  2  0
  3  8  1  0
  4 10  1  0
  4  5  1  0
  5  6  2  0
  6  7  1  0
  6 23  1  0
  7  8  2  0
  9 17  1  0
  9 10  2  0
 11 12  1  0
 12 16  1  0
 12 13  2  0
 13 14  1  0
 14 15  1  0
 15 16  2  0
 17 20  1  0
 17 18  2  0
 18 19  1  0
 19 22  1  0
 19 21  1  0
 20 21  2  0
  5 24  1  0
  7 25  1  0
  8 26  1  0
 10 27  1  0
 11 28  1  0
 15 29  1  0
 16 30  1  0
 20 31  1  0
 21 32  1  0
 22 33  1  1
 22 34  1  0
 22 35  1  0
 23 36  1  1
 23 37  1  0
 23 38  1  0
M  END
>  <Pose ID>  (24)
19

>  <Score>  (24)
-8.041082382202148

>  <smiles>  (24)
Cc1ccc2nc(Nc3ccon3)c(-c3ccn(C)n3)cc2c1

$$$$

     RDKit          3D

 36 39  0  0  0  0  0  0  0  0999 V2000
   26.3930    6.7190   -8.4050 C   0  0  0  0  0  0  0  0  0  0  0  0
   27.3400    7.0830   -9.3550 N   0  0  0  0  0  0  0  0  0  0  0  0
   25.4410    7.6400   -7.9850 N   0  0  0  0  0  0  0  0  0  0  0  0
   25.4280    8.8610   -8.5070 C   0  0  0  0  0  0  0  0  0  0  0  0
   26.2960    9.4430   -9.4210 C   0  0  0  0  0  0  0  0  0  0  0  0
   27.3340    8.3660   -9.8870 C   0  0  0  0  0  0  0  0  0  0  0  0
   24.4060    9.6170   -7.9420 N   0  0  0  0  0  0  0  0  0  0  0  0
   24.2530   10.9530   -8.2930 C   0  0  0  0  0  0  0  0  0  0  0  0
   25.1220   11.5350   -9.2090 N   0  0  0  0  0  0  0  0  0  0  0  0
   26.1460   10.7940   -9.7750 C   0  0  0  0  0  0  0  0  0  0  0  0
   27.0250   11.3750  -10.7380 C   0  0  0  0  0  0  0  0  0  0  0  0
   27.0430   10.7160  -11.9640 C   0  0  0  0  0  0  0  0  0  0  0  0
   27.9420   12.3870  -10.4810 C   0  0  0  0  0  0  0  0  0  0  0  0
   28.8380   12.6780  -11.3670 C   0  0  0  0  0  0  0  0  0  0  0  0
   28.9190   12.1300  -12.6410 C   0  0  0  0  0  0  0  0  0  0  0  0
   27.9770   11.0680  -12.9290 C   0  0  0  0  0  0  0  0  0  0  0  0
   29.8830   12.5850  -13.5330 C   0  0  0  0  0  0  0  0  0  0  0  0
   30.7660   13.5870  -13.1510 N   0  0  0  0  0  0  0  0  0  0  0  0
   30.6850   14.1360  -11.8760 C   0  0  0  0  0  0  0  0  0  0  0  0
   29.7220   13.6790  -10.9840 C   0  0  0  0  0  0  0  0  0  0  0  0
   27.8960   13.0770   -9.2890 O   0  0  0  0  0  0  0  0  0  0  0  0
   27.1500   14.2810   -9.4850 C   0  0  1  0  0  0  0  0  0  0  0  0
   27.0110   14.7910   -7.9730 C   0  0  1  0  0  0  0  0  0  0  0  0
   26.3971    5.7021   -7.9857 H   0  0  0  0  0  0  0  0  0  0  0  0
   28.0760    8.6324  -10.6541 H   0  0  0  0  0  0  0  0  0  0  0  0
   23.4444   11.5500   -7.8461 H   0  0  0  0  0  0  0  0  0  0  0  0
   26.3166    9.9157  -12.1684 H   0  0  0  0  0  0  0  0  0  0  0  0
   28.0013   10.5480  -13.8980 H   0  0  0  0  0  0  0  0  0  0  0  0
   29.9467   12.1514  -14.5419 H   0  0  0  0  0  0  0  0  0  0  0  0
   31.3823   14.9312  -11.5736 H   0  0  0  0  0  0  0  0  0  0  0  0
   29.6597   14.1102   -9.9740 H   0  0  0  0  0  0  0  0  0  0  0  0
   27.7000   15.0022  -10.1074 H   0  0  0  0  0  0  0  0  0  0  0  0
   26.1939   14.1460  -10.0119 H   0  0  0  0  0  0  0  0  0  0  0  0
   27.2366   13.9632   -7.2846 H   0  0  0  0  0  0  0  0  0  0  0  0
   27.7170   15.6162   -7.7980 H   0  0  0  0  0  0  0  0  0  0  0  0
   25.9839   15.1438   -7.7980 H   0  0  0  0  0  0  0  0  0  0  0  0
 11 12  2  0
 11 13  1  0
 11 10  1  0
 12 16  1  0
 13 14  2  0
 13 21  1  0
 14 15  1  0
 14 20  1  0
 15 17  1  0
 15 16  2  0
 17 18  2  0
 18 19  1  0
 19 20  2  0
  1  2  2  0
  1  3  1  0
  2  6  1  0
  3  4  2  0
  4  5  1  0
  4  7  1  0
  5  6  2  0
  5 10  1  0
  7  8  2  0
  8  9  1  0
  9 10  2  0
 21 22  1  0
 22 23  1  0
  1 24  1  0
  6 25  1  0
  8 26  1  0
 12 27  1  0
 16 28  1  0
 17 29  1  0
 19 30  1  0
 20 31  1  0
 22 32  1  6
 22 33  1  0
 23 34  1  1
 23 35  1  0
 23 36  1  0
M  END
>  <Pose ID>  (25)
21

>  <Score>  (25)
-8.039474487304688

>  <smiles>  (25)
CCOc1c(-c2ncnc3ncncc23)ccc2cnccc12

$$$$

     RDKit          3D

 38 41  0  0  0  0  0  0  0  0999 V2000
   25.9720    9.4320   -8.5500 C   0  0  0  0  0  0  0  0  0  0  0  0
   25.5570   10.7490   -8.3220 N   0  0  0  0  0  0  0  0  0  0  0  0
   25.5590    8.3120   -7.8290 N   0  0  0  0  0  0  0  0  0  0  0  0
   26.0580    7.0570   -8.1560 C   0  0  0  0  0  0  0  0  0  0  0  0
   26.9670    6.9160   -9.1940 N   0  0  0  0  0  0  0  0  0  0  0  0
   27.3650    8.0210   -9.9010 C   0  0  0  0  0  0  0  0  0  0  0  0
   26.9880    9.3460   -9.7160 C   0  0  0  0  0  0  0  0  0  0  0  0
   24.3820   11.2830   -9.0240 C   0  0  1  0  0  0  0  0  0  0  0  0
   23.9860   12.5700   -8.7920 C   0  0  0  0  0  0  0  0  0  0  0  0
   26.6480   11.4470   -7.6600 C   0  0  1  0  0  0  0  0  0  0  0  0
   26.1230   12.3720   -6.4780 C   0  0  1  0  0  0  0  0  0  0  0  0
   25.1390   13.4190   -7.0370 C   0  0  1  0  0  0  0  0  0  0  0  0
   24.8360   13.5280   -8.3100 N   0  0  0  0  0  0  0  0  0  0  0  0
   22.7370   12.9830   -9.0140 O   0  0  0  0  0  0  0  0  0  0  0  0
   28.2690    7.6870  -10.9030 C   0  0  0  0  0  0  0  0  0  0  0  0
   28.7970    8.6800  -11.7190 N   0  0  0  0  0  0  0  0  0  0  0  0
   28.4210   10.0040  -11.5340 C   0  0  0  0  0  0  0  0  0  0  0  0
   27.5170   10.3380  -10.5330 C   0  0  0  0  0  0  0  0  0  0  0  0
   28.9560   11.0080  -12.3620 C   0  0  0  0  0  0  0  0  0  0  0  0
   30.2900   11.1580  -12.7210 C   0  0  0  0  0  0  0  0  0  0  0  0
   30.3390   12.3470  -13.5860 C   0  0  0  0  0  0  0  0  0  0  0  0
   29.1310   12.7950  -13.6140 O   0  0  0  0  0  0  0  0  0  0  0  0
   28.3300   12.0660  -12.8930 C   0  0  0  0  0  0  0  0  0  0  0  0
   25.7310    6.1725   -7.5897 H   0  0  0  0  0  0  0  0  0  0  0  0
   24.5887   11.2013  -10.1013 H   0  0  0  0  0  0  0  0  0  0  0  0
   23.5500   10.6819   -8.6284 H   0  0  0  0  0  0  0  0  0  0  0  0
   27.3480   10.7051   -7.2481 H   0  0  0  0  0  0  0  0  0  0  0  0
   27.1453   12.0885   -8.4024 H   0  0  0  0  0  0  0  0  0  0  0  0
   25.6102   11.7517   -5.7281 H   0  0  0  0  0  0  0  0  0  0  0  0
   26.9759   12.8859   -6.0106 H   0  0  0  0  0  0  0  0  0  0  0  0
   24.1862   13.2426   -6.5164 H   0  0  0  0  0  0  0  0  0  0  0  0
   25.7029   14.3491   -6.8728 H   0  0  0  0  0  0  0  0  0  0  0  0
   25.2115   14.2812   -8.9037 H   0  0  0  0  0  0  0  0  0  0  0  0
   28.5659    6.6380  -11.0496 H   0  0  0  0  0  0  0  0  0  0  0  0
   27.2202   11.3871  -10.3873 H   0  0  0  0  0  0  0  0  0  0  0  0
   31.1343   10.5200  -12.4207 H   0  0  0  0  0  0  0  0  0  0  0  0
   31.2182   12.7641  -14.0989 H   0  0  0  0  0  0  0  0  0  0  0  0
   27.2647   12.2920  -12.7380 H   0  0  0  0  0  0  0  0  0  0  0  0
  1  7  1  0
  1  2  1  0
  1  3  2  0
  2  8  1  0
  2 10  1  0
  3  4  1  0
  4  5  2  0
  5  6  1  0
  6 15  1  0
  6  7  2  0
  7 18  1  0
  8  9  1  0
  9 14  2  0
  9 13  1  0
 10 11  1  0
 11 12  1  0
 12 13  1  0
 15 16  2  0
 16 17  1  0
 17 19  1  0
 17 18  2  0
 19 23  2  0
 19 20  1  0
 20 21  2  0
 21 22  1  0
 22 23  1  0
  4 24  1  0
  8 25  1  6
  8 26  1  0
 10 27  1  1
 10 28  1  0
 11 29  1  1
 11 30  1  0
 12 31  1  1
 12 32  1  0
 13 33  1  0
 15 34  1  0
 18 35  1  0
 20 36  1  0
 21 37  1  0
 23 38  1  0
M  END
>  <Pose ID>  (26)
51

>  <Score>  (26)
-8.006752967834473

>  <smiles>  (26)
O=C1CN(c2ncnc3cnc(-c4ccoc4)cc23)CCCN1

$$$$

     RDKit          3D

 31 34  0  0  0  0  0  0  0  0999 V2000
   27.1810    8.2600   -9.5370 C   0  0  0  0  0  0  0  0  0  0  0  0
   27.1160    7.0740   -8.8130 N   0  0  0  0  0  0  0  0  0  0  0  0
   26.2160    6.9520   -7.7600 C   0  0  0  0  0  0  0  0  0  0  0  0
   25.3820    8.0160   -7.4310 C   0  0  0  0  0  0  0  0  0  0  0  0
   25.4470    9.2000   -8.1560 N   0  0  0  0  0  0  0  0  0  0  0  0
   26.3480    9.3230   -9.2080 C   0  0  0  0  0  0  0  0  0  0  0  0
   24.4270    8.0690   -6.4220 C   0  0  0  0  0  0  0  0  0  0  0  0
   24.1640    6.9740   -5.6080 C   0  0  0  0  0  0  0  0  0  0  0  0
   23.7080    9.2470   -6.2560 C   0  0  0  0  0  0  0  0  0  0  0  0
   23.1820    7.0540   -4.6310 N   0  0  0  0  0  0  0  0  0  0  0  0
   22.4610    8.2320   -4.4650 C   0  0  0  0  0  0  0  0  0  0  0  0
   24.3270   10.0730   -7.4060 N   0  0  0  0  0  0  0  0  0  0  0  0
   22.7230    9.3280   -5.2780 C   0  0  0  0  0  0  0  0  0  0  0  0
   28.0920    8.3820  -10.6010 C   0  0  0  0  0  0  0  0  0  0  0  0
   29.1280    9.3090  -10.6010 O   0  0  0  0  0  0  0  0  0  0  0  0
   28.1130    7.6570  -11.7580 N   0  0  0  0  0  0  0  0  0  0  0  0
   29.7420    9.0910  -11.8120 C   0  0  0  0  0  0  0  0  0  0  0  0
   29.1290    8.0830  -12.5410 C   0  0  0  0  0  0  0  0  0  0  0  0
   21.9410   10.6060   -5.0990 C   0  0  1  0  0  0  0  0  0  0  0  0
   26.4210   10.6100   -9.9920 C   0  0  1  0  0  0  0  0  0  0  0  0
   26.1634    6.0144   -7.1872 H   0  0  0  0  0  0  0  0  0  0  0  0
   24.7349    6.0428   -5.7383 H   0  0  0  0  0  0  0  0  0  0  0  0
   21.6832    8.2959   -3.6898 H   0  0  0  0  0  0  0  0  0  0  0  0
   30.6203    9.6528  -12.1629 H   0  0  0  0  0  0  0  0  0  0  0  0
   29.4084    7.7116  -13.5380 H   0  0  0  0  0  0  0  0  0  0  0  0
   21.8152   10.8116   -4.0257 H   0  0  0  0  0  0  0  0  0  0  0  0
   22.4850   11.4378   -5.5704 H   0  0  0  0  0  0  0  0  0  0  0  0
   20.9528   10.5003   -5.5704 H   0  0  0  0  0  0  0  0  0  0  0  0
   26.4693   11.4608   -9.2964 H   0  0  0  0  0  0  0  0  0  0  0  0
   27.3202   10.6029  -10.6256 H   0  0  0  0  0  0  0  0  0  0  0  0
   25.5268   10.7046  -10.6256 H   0  0  0  0  0  0  0  0  0  0  0  0
  1 14  1  0
  1  6  2  0
  1  2  1  0
  2  3  2  0
  3  4  1  0
  4  5  1  0
  4  7  2  0
  5  6  1  0
  5 12  1  0
  6 20  1  0
  7  9  1  0
  7  8  1  0
  8 10  2  0
  9 12  2  0
  9 13  1  0
 10 11  1  0
 11 13  2  0
 13 19  1  0
 14 16  2  0
 14 15  1  0
 15 17  1  0
 16 18  1  0
 17 18  2  0
  3 21  1  0
  8 22  1  0
 11 23  1  0
 17 24  1  0
 18 25  1  0
 19 26  1  1
 19 27  1  0
 19 28  1  0
 20 29  1  1
 20 30  1  0
 20 31  1  0
M  END
>  <Pose ID>  (27)
60

>  <Score>  (27)
-7.963857650756836

>  <smiles>  (27)
Cc1cncc2c1nn1c(C)c(-c3ncco3)ncc21

$$$$

     RDKit          3D

 33 36  0  0  0  0  0  0  0  0999 V2000
   26.3720    6.6720   -8.4860 C   0  0  0  0  0  0  0  0  0  0  0  0
   27.3030    7.0350   -9.4520 N   0  0  0  0  0  0  0  0  0  0  0  0
   25.4540    7.6070   -8.0210 N   0  0  0  0  0  0  0  0  0  0  0  0
   25.4580    8.8400   -8.5140 C   0  0  0  0  0  0  0  0  0  0  0  0
   26.3160    9.4220   -9.4380 C   0  0  0  0  0  0  0  0  0  0  0  0
   27.3140    8.3310   -9.9540 C   0  0  0  0  0  0  0  0  0  0  0  0
   24.4690    9.6060   -7.9050 N   0  0  0  0  0  0  0  0  0  0  0  0
   24.3400   10.9530   -8.2210 C   0  0  0  0  0  0  0  0  0  0  0  0
   25.1990   11.5350   -9.1480 N   0  0  0  0  0  0  0  0  0  0  0  0
   26.1890   10.7830   -9.7560 C   0  0  0  0  0  0  0  0  0  0  0  0
   27.0570   11.3650  -10.7300 C   0  0  0  0  0  0  0  0  0  0  0  0
   27.0270   10.7350  -11.9690 C   0  0  0  0  0  0  0  0  0  0  0  0
   28.0050   12.3490  -10.4740 C   0  0  0  0  0  0  0  0  0  0  0  0
   28.8840   12.6380  -11.3770 C   0  0  0  0  0  0  0  0  0  0  0  0
   28.9200   12.1180  -12.6650 C   0  0  0  0  0  0  0  0  0  0  0  0
   27.9440   11.0860  -12.9510 C   0  0  0  0  0  0  0  0  0  0  0  0
   29.8700   12.5710  -13.5710 C   0  0  0  0  0  0  0  0  0  0  0  0
   30.7870   13.5420  -13.1890 N   0  0  0  0  0  0  0  0  0  0  0  0
   30.7530   14.0630  -11.9020 C   0  0  0  0  0  0  0  0  0  0  0  0
   29.8020   13.6100  -10.9950 C   0  0  0  0  0  0  0  0  0  0  0  0
   29.9720   14.2680   -9.7960 O   0  0  0  0  0  0  0  0  0  0  0  0
   28.8260   15.1230   -9.6020 C   0  0  1  0  0  0  0  0  0  0  0  0
   26.3614    5.6459   -8.0897 H   0  0  0  0  0  0  0  0  0  0  0  0
   28.0426    8.5973  -10.7339 H   0  0  0  0  0  0  0  0  0  0  0  0
   23.5590   11.5590   -7.7384 H   0  0  0  0  0  0  0  0  0  0  0  0
   26.2758    9.9574  -12.1717 H   0  0  0  0  0  0  0  0  0  0  0  0
   28.0073   12.8782   -9.5097 H   0  0  0  0  0  0  0  0  0  0  0  0
   27.9296   10.5879  -13.9316 H   0  0  0  0  0  0  0  0  0  0  0  0
   29.8964   12.1608  -14.5913 H   0  0  0  0  0  0  0  0  0  0  0  0
   31.4780   14.8334  -11.6007 H   0  0  0  0  0  0  0  0  0  0  0  0
   28.6465   15.2569   -8.5250 H   0  0  0  0  0  0  0  0  0  0  0  0
   29.0160   16.1018  -10.0665 H   0  0  0  0  0  0  0  0  0  0  0  0
   27.9418   14.6621  -10.0665 H   0  0  0  0  0  0  0  0  0  0  0  0
 11 12  2  0
 11 13  1  0
 11 10  1  0
 12 16  1  0
 13 14  2  0
 14 15  1  0
 14 20  1  0
 15 17  1  0
 15 16  2  0
 17 18  2  0
 18 19  1  0
 19 20  2  0
 20 21  1  0
  1  2  2  0
  1  3  1  0
  2  6  1  0
  3  4  2  0
  4  5  1  0
  4  7  1  0
  5  6  2  0
  5 10  1  0
  7  8  2  0
  8  9  1  0
  9 10  2  0
 21 22  1  0
  1 23  1  0
  6 24  1  0
  8 25  1  0
 12 26  1  0
 13 27  1  0
 16 28  1  0
 17 29  1  0
 19 30  1  0
 22 31  1  1
 22 32  1  0
 22 33  1  0
M  END
>  <Pose ID>  (28)
25

>  <Score>  (28)
-7.918174743652344

>  <smiles>  (28)
COc1cncc2ccc(-c3ncnc4ncncc34)cc12

$$$$

     RDKit          3D

 37 40  0  0  0  0  0  0  0  0999 V2000
   28.4350   10.0340  -11.6260 C   0  0  0  0  0  0  0  0  0  0  0  0
   29.2100    8.8840  -11.5190 C   0  0  0  0  0  0  0  0  0  0  0  0
   28.8020    7.7840  -10.7780 N   0  0  0  0  0  0  0  0  0  0  0  0
   27.5600    7.8110  -10.1550 C   0  0  0  0  0  0  0  0  0  0  0  0
   26.7450    8.9320  -10.2780 C   0  0  0  0  0  0  0  0  0  0  0  0
   27.1670   10.0090  -11.0340 C   0  0  0  0  0  0  0  0  0  0  0  0
   27.1760    6.8350   -9.4940 O   0  0  0  0  0  0  0  0  0  0  0  0
   30.4590    8.8280  -12.1290 N   0  0  0  0  0  0  0  0  0  0  0  0
   30.9280    9.9190  -12.8510 C   0  0  0  0  0  0  0  0  0  0  0  0
   30.1500   11.0670  -12.9610 C   0  0  0  0  0  0  0  0  0  0  0  0
   28.9010   11.1220  -12.3360 C   0  0  0  0  0  0  0  0  0  0  0  0
   25.5050    9.2040   -9.7560 N   0  0  0  0  0  0  0  0  0  0  0  0
   25.2570    9.2260   -8.2830 C   0  0  0  0  0  0  0  0  0  0  0  0
   24.5970    8.1410   -7.7230 C   0  0  0  0  0  0  0  0  0  0  0  0
   24.3360    8.1150   -6.3570 C   0  0  0  0  0  0  0  0  0  0  0  0
   24.7370    9.1770   -5.5550 C   0  0  0  0  0  0  0  0  0  0  0  0
   25.3950   10.2640   -6.1160 C   0  0  0  0  0  0  0  0  0  0  0  0
   25.6560   10.2890   -7.4810 N   0  0  0  0  0  0  0  0  0  0  0  0
   30.3900   12.2830  -13.6260 C   0  0  0  0  0  0  0  0  0  0  0  0
   29.2470   13.1320  -13.4070 C   0  0  0  0  0  0  0  0  0  0  0  0
   28.4640   12.4450  -12.6270 O   0  0  0  0  0  0  0  0  0  0  0  0
   25.8260   11.4180   -5.2440 C   0  0  1  0  0  0  0  0  0  0  0  0
   24.8390   12.5790   -5.3460 C   0  0  1  0  0  0  0  0  0  0  0  0
   29.4116    6.9584  -10.6909 H   0  0  0  0  0  0  0  0  0  0  0  0
   26.4913   10.8657  -11.1736 H   0  0  0  0  0  0  0  0  0  0  0  0
   31.9145    9.8748  -13.3355 H   0  0  0  0  0  0  0  0  0  0  0  0
   24.7234    9.3984  -10.3980 H   0  0  0  0  0  0  0  0  0  0  0  0
   24.2803    7.3016   -8.3595 H   0  0  0  0  0  0  0  0  0  0  0  0
   23.8132    7.2555   -5.9122 H   0  0  0  0  0  0  0  0  0  0  0  0
   24.5329    9.1566   -4.4743 H   0  0  0  0  0  0  0  0  0  0  0  0
   31.2877   12.5392  -14.2078 H   0  0  0  0  0  0  0  0  0  0  0  0
   29.0739   14.1405  -13.8108 H   0  0  0  0  0  0  0  0  0  0  0  0
   25.8767   11.0796   -4.1986 H   0  0  0  0  0  0  0  0  0  0  0  0
   26.8125   11.7655   -5.5846 H   0  0  0  0  0  0  0  0  0  0  0  0
   24.5572   12.9105   -4.3357 H   0  0  0  0  0  0  0  0  0  0  0  0
   25.3088   13.4131   -5.8879 H   0  0  0  0  0  0  0  0  0  0  0  0
   23.9402   12.2496   -5.8879 H   0  0  0  0  0  0  0  0  0  0  0  0
  1 11  1  0
  1  2  2  0
  1  6  1  0
  2  8  1  0
  2  3  1  0
  3  4  1  0
  4  5  1  0
  4  7  2  0
  5  6  2  0
  5 12  1  0
  8  9  2  0
  9 10  1  0
 10 19  1  0
 10 11  2  0
 11 21  1  0
 19 20  2  0
 20 21  1  0
 12 13  1  0
 13 14  2  0
 13 18  1  0
 14 15  1  0
 15 16  2  0
 16 17  1  0
 17 18  2  0
 17 22  1  0
 22 23  1  0
  3 24  1  0
  6 25  1  0
  9 26  1  0
 12 27  1  0
 14 28  1  0
 15 29  1  0
 16 30  1  0
 19 31  1  0
 20 32  1  0
 22 33  1  1
 22 34  1  0
 23 35  1  1
 23 36  1  0
 23 37  1  0
M  END
>  <Pose ID>  (29)
158

>  <Score>  (29)
-7.908210277557373

>  <smiles>  (29)
CCc1cccc(Nc2cc3c(ncc4ccoc43)[nH]c2=O)n1

$$$$

     RDKit          3D

 40 43  0  0  0  0  0  0  0  0999 V2000
   27.9630    7.8960  -10.3770 C   0  0  0  0  0  0  0  0  0  0  0  0
   28.8420    7.1410  -11.1430 C   0  0  0  0  0  0  0  0  0  0  0  0
   29.7220    7.7720  -12.0140 N   0  0  0  0  0  0  0  0  0  0  0  0
   29.7230    9.1570  -12.1200 C   0  0  0  0  0  0  0  0  0  0  0  0
   27.1110    7.0850   -9.5080 O   0  0  0  0  0  0  0  0  0  0  0  0
   28.8440    9.9130  -11.3510 C   0  0  0  0  0  0  0  0  0  0  0  0
   27.9660    9.2810  -10.4810 C   0  0  0  0  0  0  0  0  0  0  0  0
   30.4670    9.9850  -12.8780 N   0  0  0  0  0  0  0  0  0  0  0  0
   30.1930   11.0940  -12.6820 C   0  0  0  0  0  0  0  0  0  0  0  0
   29.1420   11.1060  -11.7730 C   0  0  0  0  0  0  0  0  0  0  0  0
   26.3640    7.5990   -8.4440 C   0  0  0  0  0  0  0  0  0  0  0  0
   25.6370    8.7550   -8.6790 N   0  0  0  0  0  0  0  0  0  0  0  0
   25.0000    9.1070   -7.5040 N   0  0  0  0  0  0  0  0  0  0  0  0
   25.3050    8.1960   -6.5680 C   0  0  0  0  0  0  0  0  0  0  0  0
   26.1070    7.2790   -7.1200 C   0  0  0  0  0  0  0  0  0  0  0  0
   24.1640   10.2780   -7.4370 C   0  0  1  0  0  0  0  0  0  0  0  0
   30.6630   12.2870  -13.2170 C   0  0  0  0  0  0  0  0  0  0  0  0
   30.0830   13.4930  -12.8420 C   0  0  0  0  0  0  0  0  0  0  0  0
   29.0340   13.5060  -11.9320 C   0  0  0  0  0  0  0  0  0  0  0  0
   28.5620   12.3130  -11.3970 C   0  0  0  0  0  0  0  0  0  0  0  0
   27.5370   12.5830  -10.5350 N   0  0  0  0  0  0  0  0  0  0  0  0
   27.6630   13.6800   -9.5650 C   0  0  1  0  0  0  0  0  0  0  0  0
   26.2800   11.7810  -10.5840 C   0  0  1  0  0  0  0  0  0  0  0  0
   28.8415    6.0441  -11.0602 H   0  0  0  0  0  0  0  0  0  0  0  0
   30.3742    7.2121  -12.5815 H   0  0  0  0  0  0  0  0  0  0  0  0
   27.2711    9.8785   -9.8726 H   0  0  0  0  0  0  0  0  0  0  0  0
   24.9554    8.2020   -5.5250 H   0  0  0  0  0  0  0  0  0  0  0  0
   26.5058    6.3968   -6.5978 H   0  0  0  0  0  0  0  0  0  0  0  0
   23.9792   10.5368   -6.3840 H   0  0  0  0  0  0  0  0  0  0  0  0
   24.6681   11.1176   -7.9379 H   0  0  0  0  0  0  0  0  0  0  0  0
   23.2062   10.0739   -7.9379 H   0  0  0  0  0  0  0  0  0  0  0  0
   31.4942   12.2770  -13.9374 H   0  0  0  0  0  0  0  0  0  0  0  0
   30.4549   14.4374  -13.2660 H   0  0  0  0  0  0  0  0  0  0  0  0
   28.5763   14.4610  -11.6344 H   0  0  0  0  0  0  0  0  0  0  0  0
   27.6163   13.2737   -8.5439 H   0  0  0  0  0  0  0  0  0  0  0  0
   28.6258   14.1912   -9.7126 H   0  0  0  0  0  0  0  0  0  0  0  0
   26.8412   14.3962   -9.7126 H   0  0  0  0  0  0  0  0  0  0  0  0
   25.9423   11.5656   -9.5595 H   0  0  0  0  0  0  0  0  0  0  0  0
   25.5023   12.3502  -11.1143 H   0  0  0  0  0  0  0  0  0  0  0  0
   26.4685   10.8359  -11.1143 H   0  0  0  0  0  0  0  0  0  0  0  0
  1  2  2  0
  1  7  1  0
  1  5  1  0
  2  3  1  0
  3  4  1  0
  4  8  2  0
  4  6  1  0
  6 10  1  0
  6  7  2  0
  8  9  1  0
  9 17  1  0
  9 10  2  0
 10 20  1  0
 17 18  2  0
 18 19  1  0
 19 20  2  0
 20 21  1  0
 21 23  1  0
 21 22  1  0
  5 11  1  0
 11 12  2  0
 11 15  1  0
 12 13  1  0
 13 16  1  0
 13 14  1  0
 14 15  2  0
  2 24  1  0
  3 25  1  0
  7 26  1  0
 14 27  1  0
 15 28  1  0
 16 29  1  1
 16 30  1  0
 16 31  1  0
 17 32  1  0
 18 33  1  0
 19 34  1  0
 22 35  1  1
 22 36  1  0
 22 37  1  0
 23 38  1  1
 23 39  1  0
 23 40  1  0
M  END
>  <Pose ID>  (30)
534

>  <Score>  (30)
-7.897623538970947

>  <smiles>  (30)
CN(C)c1cccc2nc3[nH]cc(Oc4ccn(C)n4)cc-3c12

$$$$

     RDKit          3D

 37 40  0  0  0  0  0  0  0  0999 V2000
   28.0260    7.8890  -10.3540 C   0  0  0  0  0  0  0  0  0  0  0  0
   29.0130    7.1470  -10.9930 C   0  0  0  0  0  0  0  0  0  0  0  0
   29.8940    7.7700  -11.8680 N   0  0  0  0  0  0  0  0  0  0  0  0
   29.7900    9.1360  -12.1060 C   0  0  0  0  0  0  0  0  0  0  0  0
   27.1880    7.0900   -9.4610 O   0  0  0  0  0  0  0  0  0  0  0  0
   28.8030    9.8780  -11.4670 C   0  0  0  0  0  0  0  0  0  0  0  0
   27.9220    9.2540  -10.5900 C   0  0  0  0  0  0  0  0  0  0  0  0
   30.5120    9.9520  -12.8970 N   0  0  0  0  0  0  0  0  0  0  0  0
   30.0750   11.1200  -12.8140 C   0  0  0  0  0  0  0  0  0  0  0  0
   29.0140   11.1390  -11.9160 C   0  0  0  0  0  0  0  0  0  0  0  0
   26.3340    7.6300   -8.4960 C   0  0  0  0  0  0  0  0  0  0  0  0
   25.5330    8.6930   -8.8850 N   0  0  0  0  0  0  0  0  0  0  0  0
   24.7950    9.0930   -7.7870 N   0  0  0  0  0  0  0  0  0  0  0  0
   25.1110    8.3010   -6.7510 C   0  0  0  0  0  0  0  0  0  0  0  0
   26.0190    7.4110   -7.1670 C   0  0  0  0  0  0  0  0  0  0  0  0
   23.8650   10.1890   -7.8810 C   0  0  1  0  0  0  0  0  0  0  0  0
   30.4730   12.2930  -13.4460 C   0  0  0  0  0  0  0  0  0  0  0  0
   29.8080   13.4840  -13.1820 C   0  0  0  0  0  0  0  0  0  0  0  0
   28.7470   13.5030  -12.2830 N   0  0  0  0  0  0  0  0  0  0  0  0
   28.3180   12.3500  -11.6590 C   0  0  0  0  0  0  0  0  0  0  0  0
   24.4390   11.6520   -8.2900 C   0  0  1  0  0  0  0  0  0  0  0  0
   27.1350   12.3740  -10.7230 C   0  0  1  0  0  0  0  0  0  0  0  0
   29.0963    6.0663  -10.8057 H   0  0  0  0  0  0  0  0  0  0  0  0
   30.6249    7.2195  -12.3409 H   0  0  0  0  0  0  0  0  0  0  0  0
   27.1425    9.8417  -10.0830 H   0  0  0  0  0  0  0  0  0  0  0  0
   24.6952    8.3714   -5.7350 H   0  0  0  0  0  0  0  0  0  0  0  0
   26.4535    6.6176   -6.5411 H   0  0  0  0  0  0  0  0  0  0  0  0
   23.1111    9.9130   -8.6329 H   0  0  0  0  0  0  0  0  0  0  0  0
   23.4946   10.3199   -6.8535 H   0  0  0  0  0  0  0  0  0  0  0  0
   31.3141   12.2779  -14.1548 H   0  0  0  0  0  0  0  0  0  0  0  0
   30.1206   14.4116  -13.6839 H   0  0  0  0  0  0  0  0  0  0  0  0
   24.6640   12.2255   -7.3787 H   0  0  0  0  0  0  0  0  0  0  0  0
   25.3570   11.5327   -8.8842 H   0  0  0  0  0  0  0  0  0  0  0  0
   23.6848   12.1888   -8.8842 H   0  0  0  0  0  0  0  0  0  0  0  0
   27.4908   12.3668   -9.6821 H   0  0  0  0  0  0  0  0  0  0  0  0
   26.5441   13.2843  -10.9022 H   0  0  0  0  0  0  0  0  0  0  0  0
   26.5076   11.4884  -10.9022 H   0  0  0  0  0  0  0  0  0  0  0  0
  1  2  2  0
  1  7  1  0
  1  5  1  0
  2  3  1  0
  3  4  1  0
  4  8  2  0
  4  6  1  0
  6 10  1  0
  6  7  2  0
  8  9  1  0
  9 17  1  0
  9 10  2  0
 10 20  1  0
 17 18  2  0
 18 19  1  0
 19 20  2  0
 20 22  1  0
  5 11  1  0
 11 12  2  0
 11 15  1  0
 12 13  1  0
 13 16  1  0
 13 14  1  0
 14 15  2  0
 16 21  1  0
  2 23  1  0
  3 24  1  0
  7 25  1  0
 14 26  1  0
 15 27  1  0
 16 28  1  6
 16 29  1  0
 17 30  1  0
 18 31  1  0
 21 32  1  1
 21 33  1  0
 21 34  1  0
 22 35  1  1
 22 36  1  0
 22 37  1  0
M  END
>  <Pose ID>  (31)
525

>  <Score>  (31)
-7.883994102478027

>  <smiles>  (31)
CCn1ccc(Oc2c[nH]c3nc4ccnc(C)c4c-3c2)n1

$$$$

     RDKit          3D

 38 41  0  0  0  0  0  0  0  0999 V2000
   28.0360    7.8810  -10.3110 C   0  0  0  0  0  0  0  0  0  0  0  0
   29.0320    7.1460  -10.9390 C   0  0  0  0  0  0  0  0  0  0  0  0
   29.8980    7.7660  -11.8330 N   0  0  0  0  0  0  0  0  0  0  0  0
   29.7670    9.1240  -12.0980 C   0  0  0  0  0  0  0  0  0  0  0  0
   27.2180    7.0870   -9.3980 O   0  0  0  0  0  0  0  0  0  0  0  0
   28.7690    9.8610  -11.4700 C   0  0  0  0  0  0  0  0  0  0  0  0
   27.9060    9.2390  -10.5750 C   0  0  0  0  0  0  0  0  0  0  0  0
   30.4700    9.9360  -12.9100 N   0  0  0  0  0  0  0  0  0  0  0  0
   30.0080   11.1030  -12.8470 C   0  0  0  0  0  0  0  0  0  0  0  0
   28.9320   11.0970  -11.9680 C   0  0  0  0  0  0  0  0  0  0  0  0
   26.3580    7.6310   -8.4390 C   0  0  0  0  0  0  0  0  0  0  0  0
   25.5360    8.6690   -8.8470 N   0  0  0  0  0  0  0  0  0  0  0  0
   24.7940    9.0780   -7.7530 N   0  0  0  0  0  0  0  0  0  0  0  0
   25.1310    8.3150   -6.7030 C   0  0  0  0  0  0  0  0  0  0  0  0
   26.0530    7.4340   -7.1040 C   0  0  0  0  0  0  0  0  0  0  0  0
   23.8420   10.1540   -7.8670 C   0  0  1  0  0  0  0  0  0  0  0  0
   30.3780   12.2790  -13.4880 C   0  0  0  0  0  0  0  0  0  0  0  0
   29.6720   13.4520  -13.2490 C   0  0  0  0  0  0  0  0  0  0  0  0
   28.5960   13.4480  -12.3680 C   0  0  0  0  0  0  0  0  0  0  0  0
   28.2260   12.2710  -11.7280 C   0  0  0  0  0  0  0  0  0  0  0  0
   27.8300   14.7210  -12.1070 C   0  0  1  0  0  0  0  0  0  0  0  0
   27.0580   12.2670  -10.7730 C   0  0  1  0  0  0  0  0  0  0  0  0
   29.1364    6.0713  -10.7291 H   0  0  0  0  0  0  0  0  0  0  0  0
   30.6362    7.2191  -12.2986 H   0  0  0  0  0  0  0  0  0  0  0  0
   27.1191    9.8228  -10.0751 H   0  0  0  0  0  0  0  0  0  0  0  0
   24.7195    8.3995   -5.6864 H   0  0  0  0  0  0  0  0  0  0  0  0
   26.5049    6.6622   -6.4636 H   0  0  0  0  0  0  0  0  0  0  0  0
   23.5454   10.4892   -6.8622 H   0  0  0  0  0  0  0  0  0  0  0  0
   24.2996   10.9922   -8.4129 H   0  0  0  0  0  0  0  0  0  0  0  0
   22.9543    9.8019   -8.4129 H   0  0  0  0  0  0  0  0  0  0  0  0
   31.2295   12.2815  -14.1844 H   0  0  0  0  0  0  0  0  0  0  0  0
   29.9642   14.3832  -13.7565 H   0  0  0  0  0  0  0  0  0  0  0  0
   27.7363   14.8767  -11.0221 H   0  0  0  0  0  0  0  0  0  0  0  0
   28.3671   15.5704  -12.5543 H   0  0  0  0  0  0  0  0  0  0  0  0
   26.8280   14.6442  -12.5543 H   0  0  0  0  0  0  0  0  0  0  0  0
   27.4306   12.2683   -9.7380 H   0  0  0  0  0  0  0  0  0  0  0  0
   26.4428   13.1630  -10.9423 H   0  0  0  0  0  0  0  0  0  0  0  0
   26.4490   11.3668  -10.9423 H   0  0  0  0  0  0  0  0  0  0  0  0
  1  2  2  0
  1  7  1  0
  1  5  1  0
  2  3  1  0
  3  4  1  0
  4  8  2  0
  4  6  1  0
  6 10  1  0
  6  7  2  0
  8  9  1  0
  9 17  1  0
  9 10  2  0
 10 20  1  0
 17 18  2  0
 18 19  1  0
 19 21  1  0
 19 20  2  0
 20 22  1  0
  5 11  1  0
 11 12  2  0
 11 15  1  0
 12 13  1  0
 13 16  1  0
 13 14  1  0
 14 15  2  0
  2 23  1  0
  3 24  1  0
  7 25  1  0
 14 26  1  0
 15 27  1  0
 16 28  1  1
 16 29  1  0
 16 30  1  0
 17 31  1  0
 18 32  1  0
 21 33  1  1
 21 34  1  0
 21 35  1  0
 22 36  1  1
 22 37  1  0
 22 38  1  0
M  END
>  <Pose ID>  (32)
503

>  <Score>  (32)
-7.866275310516357

>  <smiles>  (32)
Cc1ccc2nc3[nH]cc(Oc4ccn(C)n4)cc-3c2c1C

$$$$

     RDKit          3D

 34 37  0  0  0  0  0  0  0  0999 V2000
   27.1780    8.2330   -9.5080 C   0  0  0  0  0  0  0  0  0  0  0  0
   27.0690    7.0480   -8.7870 N   0  0  0  0  0  0  0  0  0  0  0  0
   26.1680    6.9580   -7.7320 C   0  0  0  0  0  0  0  0  0  0  0  0
   25.3770    8.0530   -7.3970 C   0  0  0  0  0  0  0  0  0  0  0  0
   25.4860    9.2360   -8.1190 N   0  0  0  0  0  0  0  0  0  0  0  0
   26.3890    9.3260   -9.1730 C   0  0  0  0  0  0  0  0  0  0  0  0
   24.4280    8.1400   -6.3850 C   0  0  0  0  0  0  0  0  0  0  0  0
   24.1250    7.0540   -5.5730 C   0  0  0  0  0  0  0  0  0  0  0  0
   23.7560    9.3450   -6.2140 C   0  0  0  0  0  0  0  0  0  0  0  0
   23.1500    7.1690   -4.5930 N   0  0  0  0  0  0  0  0  0  0  0  0
   22.4760    8.3740   -4.4220 C   0  0  0  0  0  0  0  0  0  0  0  0
   24.4040   10.1490   -7.3630 N   0  0  0  0  0  0  0  0  0  0  0  0
   22.7780    9.4610   -5.2330 C   0  0  0  0  0  0  0  0  0  0  0  0
   28.0900    8.3220  -10.5740 C   0  0  0  0  0  0  0  0  0  0  0  0
   29.1620    9.2080  -10.5750 O   0  0  0  0  0  0  0  0  0  0  0  0
   28.0800    7.6000  -11.7330 N   0  0  0  0  0  0  0  0  0  0  0  0
   29.7630    8.9700  -11.7880 C   0  0  0  0  0  0  0  0  0  0  0  0
   29.1090    7.9890  -12.5180 C   0  0  0  0  0  0  0  0  0  0  0  0
   22.0470   10.7680   -5.0480 C   0  0  1  0  0  0  0  0  0  0  0  0
   21.6940   11.0340   -3.6120 C   0  0  1  0  0  0  0  0  0  0  0  0
   26.5120   10.6120   -9.9530 C   0  0  1  0  0  0  0  0  0  0  0  0
   26.0803    6.0213   -7.1620 H   0  0  0  0  0  0  0  0  0  0  0  0
   24.6590    6.1018   -5.7075 H   0  0  0  0  0  0  0  0  0  0  0  0
   21.7036    8.4662   -3.6443 H   0  0  0  0  0  0  0  0  0  0  0  0
   30.6614    9.4981  -12.1400 H   0  0  0  0  0  0  0  0  0  0  0  0
   29.3705    7.6104  -13.5171 H   0  0  0  0  0  0  0  0  0  0  0  0
   22.6885   11.5849   -5.4103 H   0  0  0  0  0  0  0  0  0  0  0  0
   21.1073   10.7077   -5.6166 H   0  0  0  0  0  0  0  0  0  0  0  0
   22.3995   10.5024   -2.9565 H   0  0  0  0  0  0  0  0  0  0  0  0
   21.7526   12.1145   -3.4141 H   0  0  0  0  0  0  0  0  0  0  0  0
   20.6715   10.6799   -3.4141 H   0  0  0  0  0  0  0  0  0  0  0  0
   26.5929   11.4581   -9.2547 H   0  0  0  0  0  0  0  0  0  0  0  0
   27.4104   10.5721  -10.5864 H   0  0  0  0  0  0  0  0  0  0  0  0
   25.6223   10.7432  -10.5864 H   0  0  0  0  0  0  0  0  0  0  0  0
  1 14  1  0
  1  6  2  0
  1  2  1  0
  2  3  2  0
  3  4  1  0
  4  5  1  0
  4  7  2  0
  5  6  1  0
  5 12  1  0
  6 21  1  0
  7  9  1  0
  7  8  1  0
  8 10  2  0
  9 12  2  0
  9 13  1  0
 10 11  1  0
 11 13  2  0
 13 19  1  0
 14 16  2  0
 14 15  1  0
 15 17  1  0
 16 18  1  0
 17 18  2  0
 19 20  1  0
  3 22  1  0
  8 23  1  0
 11 24  1  0
 17 25  1  0
 18 26  1  0
 19 27  1  6
 19 28  1  0
 20 29  1  1
 20 30  1  0
 20 31  1  0
 21 32  1  1
 21 33  1  0
 21 34  1  0
M  END
>  <Pose ID>  (33)
61

>  <Score>  (33)
-7.8565449714660645

>  <smiles>  (33)
CCc1cncc2c1nn1c(C)c(-c3ncco3)ncc21

$$$$

     RDKit          3D

 18 19  0  0  0  0  0  0  0  0999 V2000
   28.6700    9.7150  -12.0220 C   0  0  0  0  0  0  0  0  0  0  0  0
   29.3160    8.4950  -11.9620 C   0  0  0  0  0  0  0  0  0  0  0  0
   28.8600    7.5120  -11.0910 N   0  0  0  0  0  0  0  0  0  0  0  0
   27.7700    7.7620  -10.2680 C   0  0  0  0  0  0  0  0  0  0  0  0
   27.5890    9.9820  -11.1840 C   0  0  0  0  0  0  0  0  0  0  0  0
   27.1340    8.9980  -10.3140 C   0  0  0  0  0  0  0  0  0  0  0  0
   27.1570    6.9840   -9.3590 N   0  0  0  0  0  0  0  0  0  0  0  0
   26.1190    7.6930   -8.7950 C   0  0  0  0  0  0  0  0  0  0  0  0
   26.2440    8.9190   -9.4870 C   0  0  0  0  0  0  0  0  0  0  0  0
   26.9160   11.3320  -11.2210 C   0  0  1  0  0  0  0  0  0  0  0  0
   29.0109   10.4798  -12.7353 H   0  0  0  0  0  0  0  0  0  0  0  0
   30.1894    8.3019  -12.6022 H   0  0  0  0  0  0  0  0  0  0  0  0
   29.3315    6.5969  -11.0562 H   0  0  0  0  0  0  0  0  0  0  0  0
   25.3962    7.3901   -8.0231 H   0  0  0  0  0  0  0  0  0  0  0  0
   25.5679    9.7634   -9.2875 H   0  0  0  0  0  0  0  0  0  0  0  0
   26.7411   11.6828  -10.1932 H   0  0  0  0  0  0  0  0  0  0  0  0
   27.5619   12.0494  -11.7484 H   0  0  0  0  0  0  0  0  0  0  0  0
   25.9543   11.2480  -11.7484 H   0  0  0  0  0  0  0  0  0  0  0  0
  1  2  2  0
  1  5  1  0
  2  3  1  0
  3  4  1  0
  4  6  1  0
  4  7  2  0
  5 10  1  0
  5  6  2  0
  6  9  1  0
  7  8  1  0
  8  9  2  0
  1 11  1  0
  2 12  1  0
  3 13  1  0
  8 14  1  0
  9 15  1  0
 10 16  1  1
 10 17  1  0
 10 18  1  0
M  END
>  <Pose ID>  (34)
193

>  <Score>  (34)
-7.845649242401123

>  <smiles>  (34)
Cc1cc[nH]c2nccc1-2

$$$$

     RDKit          3D

 36 39  0  0  0  0  0  0  0  0999 V2000
   26.2860    6.8070   -8.2250 C   0  0  0  0  0  0  0  0  0  0  0  0
   27.2990    7.3140   -9.0330 N   0  0  0  0  0  0  0  0  0  0  0  0
   25.2740    7.6440   -7.7750 N   0  0  0  0  0  0  0  0  0  0  0  0
   25.2630    8.9230   -8.1330 C   0  0  0  0  0  0  0  0  0  0  0  0
   26.1850    9.6390   -8.8850 C   0  0  0  0  0  0  0  0  0  0  0  0
   27.2930    8.6560   -9.3930 C   0  0  0  0  0  0  0  0  0  0  0  0
   24.1710    9.5740   -7.5680 N   0  0  0  0  0  0  0  0  0  0  0  0
   24.0030   10.9400   -7.7550 C   0  0  0  0  0  0  0  0  0  0  0  0
   24.9260   11.6570   -8.5090 N   0  0  0  0  0  0  0  0  0  0  0  0
   26.0190   11.0200   -9.0740 C   0  0  0  0  0  0  0  0  0  0  0  0
   26.9550   11.7430   -9.8730 C   0  0  0  0  0  0  0  0  0  0  0  0
   27.0980   11.2520  -11.1670 C   0  0  0  0  0  0  0  0  0  0  0  0
   27.8120   12.7330   -9.4090 C   0  0  0  0  0  0  0  0  0  0  0  0
   28.7690   13.1580  -10.1670 C   0  0  0  0  0  0  0  0  0  0  0  0
   28.9760   12.7860  -11.4890 C   0  0  0  0  0  0  0  0  0  0  0  0
   28.0980   11.7480  -11.9930 C   0  0  0  0  0  0  0  0  0  0  0  0
   29.9960   13.3750  -12.2270 C   0  0  0  0  0  0  0  0  0  0  0  0
   30.8080   14.3380  -11.6420 N   0  0  0  0  0  0  0  0  0  0  0  0
   30.6020   14.7120  -10.3190 C   0  0  0  0  0  0  0  0  0  0  0  0
   29.5820   14.1210   -9.5820 C   0  0  0  0  0  0  0  0  0  0  0  0
   28.2880    9.1350  -10.2170 O   0  0  0  0  0  0  0  0  0  0  0  0
   28.5410    8.5340  -11.5240 C   0  0  1  0  0  0  0  0  0  0  0  0
   28.2680   11.2140  -13.3940 C   0  0  1  0  0  0  0  0  0  0  0  0
   26.2870    5.7438   -7.9430 H   0  0  0  0  0  0  0  0  0  0  0  0
   23.1402   11.4546   -7.3069 H   0  0  0  0  0  0  0  0  0  0  0  0
   26.4181   10.4700  -11.5361 H   0  0  0  0  0  0  0  0  0  0  0  0
   27.6769   13.1532   -8.4015 H   0  0  0  0  0  0  0  0  0  0  0  0
   30.1600   13.0787  -13.2736 H   0  0  0  0  0  0  0  0  0  0  0  0
   31.2453   15.4747   -9.8558 H   0  0  0  0  0  0  0  0  0  0  0  0
   29.4185   14.4160   -8.5350 H   0  0  0  0  0  0  0  0  0  0  0  0
   28.9646    7.5278  -11.3891 H   0  0  0  0  0  0  0  0  0  0  0  0
   27.5967    8.4623  -12.0836 H   0  0  0  0  0  0  0  0  0  0  0  0
   29.2523    9.1593  -12.0836 H   0  0  0  0  0  0  0  0  0  0  0  0
   28.6014   10.1667  -13.3493 H   0  0  0  0  0  0  0  0  0  0  0  0
   27.3074   11.2706  -13.9270 H   0  0  0  0  0  0  0  0  0  0  0  0
   29.0191   11.8155  -13.9270 H   0  0  0  0  0  0  0  0  0  0  0  0
  1  2  2  0
  1  3  1  0
  2  6  1  0
  3  4  2  0
  4  5  1  0
  4  7  1  0
  5  6  2  0
  5 10  1  0
  6 21  1  0
  7  8  2  0
  8  9  1  0
  9 10  2  0
 10 11  1  0
 11 12  2  0
 11 13  1  0
 12 16  1  0
 13 14  2  0
 14 15  1  0
 14 20  1  0
 15 17  1  0
 15 16  2  0
 16 23  1  0
 17 18  2  0
 18 19  1  0
 19 20  2  0
 21 22  1  0
  1 24  1  0
  8 25  1  0
 12 26  1  0
 13 27  1  0
 17 28  1  0
 19 29  1  0
 20 30  1  0
 22 31  1  1
 22 32  1  0
 22 33  1  0
 23 34  1  1
 23 35  1  0
 23 36  1  0
M  END
>  <Pose ID>  (35)
35

>  <Score>  (35)
-7.830821990966797

>  <smiles>  (35)
COc1ncnc2ncnc(-c3cc(C)c4cnccc4c3)c12

$$$$

     RDKit          3D

 33 36  0  0  0  0  0  0  0  0999 V2000
   26.3770    6.7350   -8.3700 C   0  0  0  0  0  0  0  0  0  0  0  0
   27.3340    7.0930   -9.3120 N   0  0  0  0  0  0  0  0  0  0  0  0
   25.4150    7.6550   -7.9720 N   0  0  0  0  0  0  0  0  0  0  0  0
   25.4010    8.8700   -8.5080 C   0  0  0  0  0  0  0  0  0  0  0  0
   26.2770    9.4460   -9.4180 C   0  0  0  0  0  0  0  0  0  0  0  0
   27.3270    8.3700   -9.8590 C   0  0  0  0  0  0  0  0  0  0  0  0
   24.3680    9.6260   -7.9640 N   0  0  0  0  0  0  0  0  0  0  0  0
   24.2110   10.9570   -8.3320 C   0  0  0  0  0  0  0  0  0  0  0  0
   25.0880   11.5330   -9.2440 N   0  0  0  0  0  0  0  0  0  0  0  0
   26.1230   10.7920   -9.7890 C   0  0  0  0  0  0  0  0  0  0  0  0
   27.0100   11.3670  -10.7480 C   0  0  0  0  0  0  0  0  0  0  0  0
   27.0470   10.6950  -11.9660 C   0  0  0  0  0  0  0  0  0  0  0  0
   27.9180   12.3880  -10.4920 C   0  0  0  0  0  0  0  0  0  0  0  0
   28.8230   12.6740  -11.3700 C   0  0  0  0  0  0  0  0  0  0  0  0
   28.9230   12.1120  -12.6370 C   0  0  0  0  0  0  0  0  0  0  0  0
   27.9910   11.0410  -12.9240 C   0  0  0  0  0  0  0  0  0  0  0  0
   29.8950   12.5630  -13.5220 C   0  0  0  0  0  0  0  0  0  0  0  0
   30.7670   13.5740  -13.1410 N   0  0  0  0  0  0  0  0  0  0  0  0
   30.6680   14.1370  -11.8740 C   0  0  0  0  0  0  0  0  0  0  0  0
   29.6960   13.6850  -10.9880 C   0  0  0  0  0  0  0  0  0  0  0  0
   27.8540   13.0910   -9.3090 O   0  0  0  0  0  0  0  0  0  0  0  0
   27.1030   14.2880   -9.5270 C   0  0  1  0  0  0  0  0  0  0  0  0
   26.3812    5.7228   -7.9393 H   0  0  0  0  0  0  0  0  0  0  0  0
   28.0767    8.6320  -10.6201 H   0  0  0  0  0  0  0  0  0  0  0  0
   23.3934   11.5542   -7.9020 H   0  0  0  0  0  0  0  0  0  0  0  0
   26.3274    9.8885  -12.1703 H   0  0  0  0  0  0  0  0  0  0  0  0
   28.0303   10.5097  -13.8864 H   0  0  0  0  0  0  0  0  0  0  0  0
   29.9735   12.1186  -14.5252 H   0  0  0  0  0  0  0  0  0  0  0  0
   31.3577   14.9391  -11.5725 H   0  0  0  0  0  0  0  0  0  0  0  0
   29.6184   14.1282   -9.9842 H   0  0  0  0  0  0  0  0  0  0  0  0
   26.8264   14.7289   -8.5579 H   0  0  0  0  0  0  0  0  0  0  0  0
   27.7132   15.0053  -10.0954 H   0  0  0  0  0  0  0  0  0  0  0  0
   26.1916   14.0507  -10.0954 H   0  0  0  0  0  0  0  0  0  0  0  0
 11 12  2  0
 11 13  1  0
 11 10  1  0
 12 16  1  0
 13 14  2  0
 13 21  1  0
 14 15  1  0
 14 20  1  0
 15 17  1  0
 15 16  2  0
 17 18  2  0
 18 19  1  0
 19 20  2  0
  1  2  2  0
  1  3  1  0
  2  6  1  0
  3  4  2  0
  4  5  1  0
  4  7  1  0
  5  6  2  0
  5 10  1  0
  7  8  2  0
  8  9  1  0
  9 10  2  0
 21 22  1  0
  1 23  1  0
  6 24  1  0
  8 25  1  0
 12 26  1  0
 16 27  1  0
 17 28  1  0
 19 29  1  0
 20 30  1  0
 22 31  1  1
 22 32  1  0
 22 33  1  0
M  END
>  <Pose ID>  (36)
20

>  <Score>  (36)
-7.817249774932861

>  <smiles>  (36)
COc1c(-c2ncnc3ncncc23)ccc2cnccc12

$$$$

     RDKit          3D

 38 41  0  0  0  0  0  0  0  0999 V2000
   28.0410    7.8880  -10.3090 C   0  0  0  0  0  0  0  0  0  0  0  0
   29.0520    7.1510  -10.9100 C   0  0  0  0  0  0  0  0  0  0  0  0
   29.9270    7.7640  -11.8010 N   0  0  0  0  0  0  0  0  0  0  0  0
   29.7890    9.1170  -12.0890 C   0  0  0  0  0  0  0  0  0  0  0  0
   27.2160    7.1010   -9.3960 O   0  0  0  0  0  0  0  0  0  0  0  0
   28.7760    9.8560  -11.4870 C   0  0  0  0  0  0  0  0  0  0  0  0
   27.9050    9.2400  -10.5950 C   0  0  0  0  0  0  0  0  0  0  0  0
   30.4980    9.9220  -12.9030 N   0  0  0  0  0  0  0  0  0  0  0  0
   30.0260   11.0860  -12.8650 C   0  0  0  0  0  0  0  0  0  0  0  0
   28.9370   11.0850  -12.0020 C   0  0  0  0  0  0  0  0  0  0  0  0
   26.3380    7.6530   -8.4580 C   0  0  0  0  0  0  0  0  0  0  0  0
   25.5140    8.6780   -8.8940 N   0  0  0  0  0  0  0  0  0  0  0  0
   24.7520    9.0980   -7.8180 N   0  0  0  0  0  0  0  0  0  0  0  0
   25.0790    8.3540   -6.7510 C   0  0  0  0  0  0  0  0  0  0  0  0
   26.0140    7.4740   -7.1250 C   0  0  0  0  0  0  0  0  0  0  0  0
   23.7940   10.1640   -7.9620 C   0  0  1  0  0  0  0  0  0  0  0  0
   30.3960   12.2550  -13.5180 C   0  0  0  0  0  0  0  0  0  0  0  0
   29.6770   13.4260  -13.3080 C   0  0  0  0  0  0  0  0  0  0  0  0
   28.5880   13.4270  -12.4430 C   0  0  0  0  0  0  0  0  0  0  0  0
   28.2180   12.2570  -11.7900 C   0  0  0  0  0  0  0  0  0  0  0  0
   27.8090   14.6970  -12.2130 C   0  0  1  0  0  0  0  0  0  0  0  0
   24.2100   11.5120   -7.3500 C   0  0  1  0  0  0  0  0  0  0  0  0
   29.1615    6.0806  -10.6814 H   0  0  0  0  0  0  0  0  0  0  0  0
   30.6764    7.2159  -12.2469 H   0  0  0  0  0  0  0  0  0  0  0  0
   27.1066    9.8250  -10.1150 H   0  0  0  0  0  0  0  0  0  0  0  0
   24.6517    8.4509   -5.7420 H   0  0  0  0  0  0  0  0  0  0  0  0
   26.4619    6.7155   -6.4662 H   0  0  0  0  0  0  0  0  0  0  0  0
   23.6180   10.3191   -9.0367 H   0  0  0  0  0  0  0  0  0  0  0  0
   22.8987    9.8436   -7.4090 H   0  0  0  0  0  0  0  0  0  0  0  0
   31.2580   12.2540  -14.2013 H   0  0  0  0  0  0  0  0  0  0  0  0
   29.9693   14.3515  -13.8258 H   0  0  0  0  0  0  0  0  0  0  0  0
   27.3568   12.2578  -11.1057 H   0  0  0  0  0  0  0  0  0  0  0  0
   27.7023   14.8710  -11.1321 H   0  0  0  0  0  0  0  0  0  0  0  0
   28.3438   15.5429  -12.6695 H   0  0  0  0  0  0  0  0  0  0  0  0
   26.8126   14.6037  -12.6695 H   0  0  0  0  0  0  0  0  0  0  0  0
   24.1875   11.4390   -6.2527 H   0  0  0  0  0  0  0  0  0  0  0  0
   25.2283   11.7658   -7.6798 H   0  0  0  0  0  0  0  0  0  0  0  0
   23.5118   12.2955   -7.6798 H   0  0  0  0  0  0  0  0  0  0  0  0
  1  2  2  0
  1  7  1  0
  1  5  1  0
  2  3  1  0
  3  4  1  0
  4  8  2  0
  4  6  1  0
  6 10  1  0
  6  7  2  0
  8  9  1  0
  9 17  1  0
  9 10  2  0
 10 20  1  0
 17 18  2  0
 18 19  1  0
 19 21  1  0
 19 20  2  0
  5 11  1  0
 11 12  2  0
 11 15  1  0
 12 13  1  0
 13 16  1  0
 13 14  1  0
 14 15  2  0
 16 22  1  0
  2 23  1  0
  3 24  1  0
  7 25  1  0
 14 26  1  0
 15 27  1  0
 16 28  1  6
 16 29  1  0
 17 30  1  0
 18 31  1  0
 20 32  1  0
 21 33  1  1
 21 34  1  0
 21 35  1  0
 22 36  1  1
 22 37  1  0
 22 38  1  0
M  END
>  <Pose ID>  (37)
502

>  <Score>  (37)
-7.806057453155518

>  <smiles>  (37)
CCn1ccc(Oc2c[nH]c3nc4ccc(C)cc4c-3c2)n1

$$$$

     RDKit          3D

 33 36  0  0  0  0  0  0  0  0999 V2000
   26.1660    6.6740   -8.0410 C   0  0  0  0  0  0  0  0  0  0  0  0
   27.0160    7.0430   -9.0760 N   0  0  0  0  0  0  0  0  0  0  0  0
   25.3150    7.6140   -7.4710 N   0  0  0  0  0  0  0  0  0  0  0  0
   25.3040    8.8600   -7.9300 C   0  0  0  0  0  0  0  0  0  0  0  0
   26.0910    9.4480   -8.9110 C   0  0  0  0  0  0  0  0  0  0  0  0
   27.0140    8.3520   -9.5440 C   0  0  0  0  0  0  0  0  0  0  0  0
   24.3920    9.6290   -7.2160 N   0  0  0  0  0  0  0  0  0  0  0  0
   24.2670   10.9870   -7.4830 C   0  0  0  0  0  0  0  0  0  0  0  0
   25.0550   11.5760   -8.4670 N   0  0  0  0  0  0  0  0  0  0  0  0
   25.9690   10.8210   -9.1810 C   0  0  0  0  0  0  0  0  0  0  0  0
   26.7620   11.4120  -10.2120 C   0  0  0  0  0  0  0  0  0  0  0  0
   26.6060   10.8180  -11.4600 C   0  0  0  0  0  0  0  0  0  0  0  0
   27.7510   12.3670  -10.0160 C   0  0  0  0  0  0  0  0  0  0  0  0
   28.5530   12.6630  -10.9860 C   0  0  0  0  0  0  0  0  0  0  0  0
   28.4620   12.1800  -12.2850 C   0  0  0  0  0  0  0  0  0  0  0  0
   27.4420   11.1770  -12.5110 C   0  0  0  0  0  0  0  0  0  0  0  0
   29.3400   12.6380  -13.2600 C   0  0  0  0  0  0  0  0  0  0  0  0
   30.3100   13.5780  -12.9370 N   0  0  0  0  0  0  0  0  0  0  0  0
   30.4020   14.0620  -11.6370 C   0  0  0  0  0  0  0  0  0  0  0  0
   29.5250   13.6040  -10.6620 C   0  0  0  0  0  0  0  0  0  0  0  0
   27.1110   10.4570  -13.6370 O   0  0  0  0  0  0  0  0  0  0  0  0
   25.8490   10.5170  -14.3060 C   0  0  1  0  0  0  0  0  0  0  0  0
   26.1663    5.6376   -7.6723 H   0  0  0  0  0  0  0  0  0  0  0  0
   27.6764    8.6247  -10.3788 H   0  0  0  0  0  0  0  0  0  0  0  0
   23.5461   11.5955   -6.9172 H   0  0  0  0  0  0  0  0  0  0  0  0
   25.8206   10.0637  -11.6154 H   0  0  0  0  0  0  0  0  0  0  0  0
   27.8514   12.8683   -9.0420 H   0  0  0  0  0  0  0  0  0  0  0  0
   29.2666   12.2556  -14.2888 H   0  0  0  0  0  0  0  0  0  0  0  0
   31.1691   14.8075  -11.3805 H   0  0  0  0  0  0  0  0  0  0  0  0
   29.5991   13.9856   -9.6330 H   0  0  0  0  0  0  0  0  0  0  0  0
   25.0406   10.5554  -13.5611 H   0  0  0  0  0  0  0  0  0  0  0  0
   25.8104   11.4180  -14.9359 H   0  0  0  0  0  0  0  0  0  0  0  0
   25.7251    9.6237  -14.9359 H   0  0  0  0  0  0  0  0  0  0  0  0
 11 12  2  0
 11 13  1  0
 11 10  1  0
 12 16  1  0
 13 14  2  0
 14 15  1  0
 14 20  1  0
 15 17  1  0
 15 16  2  0
 16 21  1  0
 17 18  2  0
 18 19  1  0
 19 20  2  0
  1  2  2  0
  1  3  1  0
  2  6  1  0
  3  4  2  0
  4  5  1  0
  4  7  1  0
  5  6  2  0
  5 10  1  0
  7  8  2  0
  8  9  1  0
  9 10  2  0
 21 22  1  0
  1 23  1  0
  6 24  1  0
  8 25  1  0
 12 26  1  0
 13 27  1  0
 17 28  1  0
 19 29  1  0
 20 30  1  0
 22 31  1  1
 22 32  1  0
 22 33  1  0
M  END
>  <Pose ID>  (38)
26

>  <Score>  (38)
-7.80245304107666

>  <smiles>  (38)
COc1cc(-c2ncnc3ncncc23)cc2ccncc12

$$$$

     RDKit          3D

 37 40  0  0  0  0  0  0  0  0999 V2000
   27.9630    7.8820  -10.2710 C   0  0  0  0  0  0  0  0  0  0  0  0
   28.9530    7.1480  -10.9100 C   0  0  0  0  0  0  0  0  0  0  0  0
   29.8170    7.7720  -11.8040 N   0  0  0  0  0  0  0  0  0  0  0  0
   29.6880    9.1320  -12.0580 C   0  0  0  0  0  0  0  0  0  0  0  0
   27.1470    7.0830   -9.3600 O   0  0  0  0  0  0  0  0  0  0  0  0
   28.6950    9.8670  -11.4170 C   0  0  0  0  0  0  0  0  0  0  0  0
   27.8340    9.2420  -10.5240 C   0  0  0  0  0  0  0  0  0  0  0  0
   30.3900    9.9490  -12.8670 N   0  0  0  0  0  0  0  0  0  0  0  0
   29.9280   11.1200  -12.7920 C   0  0  0  0  0  0  0  0  0  0  0  0
   28.8530   11.1200  -11.9110 C   0  0  0  0  0  0  0  0  0  0  0  0
   26.2940    7.6230   -8.3920 C   0  0  0  0  0  0  0  0  0  0  0  0
   25.4730    8.6670   -8.7870 N   0  0  0  0  0  0  0  0  0  0  0  0
   24.7380    9.0710   -7.6860 N   0  0  0  0  0  0  0  0  0  0  0  0
   25.0780    8.2980   -6.6440 C   0  0  0  0  0  0  0  0  0  0  0  0
   25.9960    7.4170   -7.0570 C   0  0  0  0  0  0  0  0  0  0  0  0
   23.7890   10.1500   -7.7880 C   0  0  1  0  0  0  0  0  0  0  0  0
   30.3070   12.2970  -13.4260 C   0  0  0  0  0  0  0  0  0  0  0  0
   29.6080   13.4730  -13.1820 C   0  0  0  0  0  0  0  0  0  0  0  0
   28.5330   13.4730  -12.3040 C   0  0  0  0  0  0  0  0  0  0  0  0
   28.1550   12.2970  -11.6670 N   0  0  0  0  0  0  0  0  0  0  0  0
   27.7760   14.7510  -12.0390 C   0  0  1  0  0  0  0  0  0  0  0  0
   23.7630   11.1860   -6.6380 C   0  0  1  0  0  0  0  0  0  0  0  0
   29.0544    6.0713  -10.7091 H   0  0  0  0  0  0  0  0  0  0  0  0
   30.5515    7.2265  -12.2771 H   0  0  0  0  0  0  0  0  0  0  0  0
   27.0500    9.8238  -10.0171 H   0  0  0  0  0  0  0  0  0  0  0  0
   24.6717    8.3752   -5.6247 H   0  0  0  0  0  0  0  0  0  0  0  0
   26.4494    6.6393   -6.4249 H   0  0  0  0  0  0  0  0  0  0  0  0
   24.0074   10.6949   -8.7183 H   0  0  0  0  0  0  0  0  0  0  0  0
   22.8035    9.6628   -7.7505 H   0  0  0  0  0  0  0  0  0  0  0  0
   31.1599   12.2978  -14.1207 H   0  0  0  0  0  0  0  0  0  0  0  0
   29.9068   14.4045  -13.6850 H   0  0  0  0  0  0  0  0  0  0  0  0
   27.6849   14.9049  -10.9536 H   0  0  0  0  0  0  0  0  0  0  0  0
   28.3184   15.5977  -12.4851 H   0  0  0  0  0  0  0  0  0  0  0  0
   26.7729   14.6822  -12.4851 H   0  0  0  0  0  0  0  0  0  0  0  0
   23.7762   10.6612   -5.6713 H   0  0  0  0  0  0  0  0  0  0  0  0
   24.6450   11.8390   -6.7127 H   0  0  0  0  0  0  0  0  0  0  0  0
   22.8493   11.7939   -6.7127 H   0  0  0  0  0  0  0  0  0  0  0  0
  1  2  2  0
  1  7  1  0
  1  5  1  0
  2  3  1  0
  3  4  1  0
  4  8  2  0
  4  6  1  0
  6 10  1  0
  6  7  2  0
  8  9  1  0
  9 17  1  0
  9 10  2  0
 10 20  1  0
 17 18  2  0
 18 19  1  0
 19 21  1  0
 19 20  2  0
  5 11  1  0
 11 12  2  0
 11 15  1  0
 12 13  1  0
 13 16  1  0
 13 14  1  0
 14 15  2  0
 16 22  1  0
  2 23  1  0
  3 24  1  0
  7 25  1  0
 14 26  1  0
 15 27  1  0
 16 28  1  6
 16 29  1  0
 17 30  1  0
 18 31  1  0
 21 32  1  1
 21 33  1  0
 21 34  1  0
 22 35  1  1
 22 36  1  0
 22 37  1  0
M  END
>  <Pose ID>  (39)
518

>  <Score>  (39)
-7.773622035980225

>  <smiles>  (39)
CCn1ccc(Oc2c[nH]c3nc4ccc(C)nc4c-3c2)n1

$$$$

     RDKit          3D

 32 35  0  0  0  0  0  0  0  0999 V2000
   26.3970    6.5930   -8.5130 C   0  0  0  0  0  0  0  0  0  0  0  0
   27.4010    7.1390   -9.3020 N   0  0  0  0  0  0  0  0  0  0  0  0
   25.3650    7.4010   -8.0470 N   0  0  0  0  0  0  0  0  0  0  0  0
   25.3300    8.6880   -8.3740 C   0  0  0  0  0  0  0  0  0  0  0  0
   26.2440    9.4390   -9.1050 C   0  0  0  0  0  0  0  0  0  0  0  0
   27.3720    8.4880   -9.6310 C   0  0  0  0  0  0  0  0  0  0  0  0
   24.2250    9.3030   -7.7990 N   0  0  0  0  0  0  0  0  0  0  0  0
   24.0330   10.6690   -7.9540 C   0  0  0  0  0  0  0  0  0  0  0  0
   24.9430   11.4220   -8.6860 N   0  0  0  0  0  0  0  0  0  0  0  0
   26.0510   10.8200   -9.2600 C   0  0  0  0  0  0  0  0  0  0  0  0
   26.9790   11.5790  -10.0380 C   0  0  0  0  0  0  0  0  0  0  0  0
   27.1360   11.1200  -11.3420 C   0  0  0  0  0  0  0  0  0  0  0  0
   27.8130   12.5740   -9.5460 C   0  0  0  0  0  0  0  0  0  0  0  0
   28.7320   13.0640  -10.3410 C   0  0  0  0  0  0  0  0  0  0  0  0
   28.9480   12.6480  -11.6480 C   0  0  0  0  0  0  0  0  0  0  0  0
   28.1320   11.6590  -12.1500 C   0  0  0  0  0  0  0  0  0  0  0  0
   29.9810   13.2040  -12.3930 C   0  0  0  0  0  0  0  0  0  0  0  0
   29.5490   14.0390   -9.7770 C   0  0  0  0  0  0  0  0  0  0  0  0
   30.5820   14.5950  -10.5220 C   0  0  0  0  0  0  0  0  0  0  0  0
   30.7970   14.1790  -11.8300 N   0  0  0  0  0  0  0  0  0  0  0  0
   30.5020   13.1150  -13.5710 C   0  0  1  0  0  0  0  0  0  0  0  0
   26.4178    5.5234   -8.2570 H   0  0  0  0  0  0  0  0  0  0  0  0
   28.1613    8.8991  -10.2775 H   0  0  0  0  0  0  0  0  0  0  0  0
   23.1592   11.1561   -7.4967 H   0  0  0  0  0  0  0  0  0  0  0  0
   26.4744   10.3330  -11.7330 H   0  0  0  0  0  0  0  0  0  0  0  0
   27.7050   12.9416   -8.5149 H   0  0  0  0  0  0  0  0  0  0  0  0
   28.2664   11.2984  -13.1805 H   0  0  0  0  0  0  0  0  0  0  0  0
   29.3773   14.3695   -8.7420 H   0  0  0  0  0  0  0  0  0  0  0  0
   31.2294   15.3644  -10.0761 H   0  0  0  0  0  0  0  0  0  0  0  0
   31.5827   12.9304  -13.4810 H   0  0  0  0  0  0  0  0  0  0  0  0
   30.0324   12.2841  -14.1178 H   0  0  0  0  0  0  0  0  0  0  0  0
   30.3348   14.0547  -14.1178 H   0  0  0  0  0  0  0  0  0  0  0  0
 11 12  2  0
 11 13  1  0
 11 10  1  0
 12 16  1  0
 13 14  2  0
 14 15  1  0
 14 18  1  0
 15 17  1  0
 15 16  2  0
 17 21  1  0
 17 20  2  0
 18 19  2  0
 19 20  1  0
  1  2  2  0
  1  3  1  0
  2  6  1  0
  3  4  2  0
  4  5  1  0
  4  7  1  0
  5  6  2  0
  5 10  1  0
  7  8  2  0
  8  9  1  0
  9 10  2  0
  1 22  1  0
  6 23  1  0
  8 24  1  0
 12 25  1  0
 13 26  1  0
 16 27  1  0
 18 28  1  0
 19 29  1  0
 21 30  1  1
 21 31  1  0
 21 32  1  0
M  END
>  <Pose ID>  (40)
37

>  <Score>  (40)
-7.7651896476745605

>  <smiles>  (40)
Cc1nccc2cc(-c3ncnc4ncncc34)ccc12

$$$$

     RDKit          3D

 38 41  0  0  0  0  0  0  0  0999 V2000
   27.3850    8.6440   -9.8730 C   0  0  0  0  0  0  0  0  0  0  0  0
   26.9320    7.5370   -9.1720 N   0  0  0  0  0  0  0  0  0  0  0  0
   26.1040    7.7010   -8.0730 C   0  0  0  0  0  0  0  0  0  0  0  0
   25.7250    8.9770   -7.6710 C   0  0  0  0  0  0  0  0  0  0  0  0
   24.9250    9.0920   -6.5080 C   0  0  0  0  0  0  0  0  0  0  0  0
   24.4980    7.9560   -5.8270 C   0  0  0  0  0  0  0  0  0  0  0  0
   24.8720    6.6970   -6.2800 C   0  0  0  0  0  0  0  0  0  0  0  0
   25.6680    6.5690   -7.4080 C   0  0  0  0  0  0  0  0  0  0  0  0
   27.0070    9.9220   -9.4740 C   0  0  0  0  0  0  0  0  0  0  0  0
   26.1760   10.0880   -8.3710 C   0  0  0  0  0  0  0  0  0  0  0  0
   28.2060    8.4850  -10.9620 N   0  0  0  0  0  0  0  0  0  0  0  0
   28.7320    9.4690  -11.6840 C   0  0  0  0  0  0  0  0  0  0  0  0
   30.1050    9.7050  -11.8440 N   0  0  0  0  0  0  0  0  0  0  0  0
   30.1700   10.7910  -12.6240 O   0  0  0  0  0  0  0  0  0  0  0  0
   29.0160   11.2300  -12.9580 C   0  0  0  0  0  0  0  0  0  0  0  0
   28.0580   10.3740  -12.3990 C   0  0  0  0  0  0  0  0  0  0  0  0
   27.3220   11.1840  -10.0060 C   0  0  0  0  0  0  0  0  0  0  0  0
   28.6040   11.5660  -10.4320 N   0  0  0  0  0  0  0  0  0  0  0  0
   28.5010   12.7390  -10.9520 N   0  0  0  0  0  0  0  0  0  0  0  0
   26.5030   12.2300  -10.3710 C   0  0  0  0  0  0  0  0  0  0  0  0
   27.2920   13.2480  -10.8990 C   0  0  0  0  0  0  0  0  0  0  0  0
   29.7410   13.5550  -11.5210 C   0  0  1  0  0  0  0  0  0  0  0  0
   28.7380   12.4490  -13.8030 C   0  0  1  0  0  0  0  0  0  0  0  0
   24.6386   10.0882   -6.1397 H   0  0  0  0  0  0  0  0  0  0  0  0
   23.8659    8.0546   -4.9322 H   0  0  0  0  0  0  0  0  0  0  0  0
   24.5354    5.7986   -5.7419 H   0  0  0  0  0  0  0  0  0  0  0  0
   25.9518    5.5708   -7.7729 H   0  0  0  0  0  0  0  0  0  0  0  0
   25.8766   11.0978   -8.0538 H   0  0  0  0  0  0  0  0  0  0  0  0
   28.4337    7.5207  -11.2434 H   0  0  0  0  0  0  0  0  0  0  0  0
   26.9668   10.4351  -12.5241 H   0  0  0  0  0  0  0  0  0  0  0  0
   25.4086   12.2563  -10.2632 H   0  0  0  0  0  0  0  0  0  0  0  0
   26.9732   14.2556  -11.2042 H   0  0  0  0  0  0  0  0  0  0  0  0
   30.3371   13.9473  -10.6839 H   0  0  0  0  0  0  0  0  0  0  0  0
   30.3657   12.8909  -12.1364 H   0  0  0  0  0  0  0  0  0  0  0  0
   29.3782   14.3914  -12.1364 H   0  0  0  0  0  0  0  0  0  0  0  0
   28.5413   13.3114  -13.1491 H   0  0  0  0  0  0  0  0  0  0  0  0
   29.6107   12.6618  -14.4379 H   0  0  0  0  0  0  0  0  0  0  0  0
   27.8594   12.2624  -14.4379 H   0  0  0  0  0  0  0  0  0  0  0  0
  1 11  1  0
  1  9  1  0
  1  2  2  0
  2  3  1  0
  3  4  2  0
  3  8  1  0
  4 10  1  0
  4  5  1  0
  5  6  2  0
  6  7  1  0
  7  8  2  0
  9 17  1  0
  9 10  2  0
 11 12  1  0
 12 16  1  0
 12 13  2  0
 13 14  1  0
 14 15  1  0
 15 23  1  0
 15 16  2  0
 17 18  2  0
 17 20  1  0
 18 19  1  0
 19 22  1  0
 19 21  1  0
 20 21  2  0
  5 24  1  0
  6 25  1  0
  7 26  1  0
  8 27  1  0
 10 28  1  0
 11 29  1  0
 16 30  1  0
 20 31  1  0
 21 32  1  0
 22 33  1  1
 22 34  1  0
 22 35  1  0
 23 36  1  1
 23 37  1  0
 23 38  1  0
M  END
>  <Pose ID>  (41)
18

>  <Score>  (41)
-7.718940734863281

>  <smiles>  (41)
Cc1cc(Nc2nc3ccccc3cc2-c2ccn(C)n2)no1

$$$$

     RDKit          3D

 36 39  0  0  0  0  0  0  0  0999 V2000
   28.4190    9.9900  -11.6330 C   0  0  0  0  0  0  0  0  0  0  0  0
   29.1850    8.8340  -11.5110 C   0  0  0  0  0  0  0  0  0  0  0  0
   28.7740    7.7550  -10.7430 N   0  0  0  0  0  0  0  0  0  0  0  0
   27.5380    7.8050  -10.1100 C   0  0  0  0  0  0  0  0  0  0  0  0
   26.7320    8.9310  -10.2480 C   0  0  0  0  0  0  0  0  0  0  0  0
   27.1560    9.9870  -11.0290 C   0  0  0  0  0  0  0  0  0  0  0  0
   27.1510    6.8460   -9.4260 O   0  0  0  0  0  0  0  0  0  0  0  0
   30.4260    8.7550  -12.1330 N   0  0  0  0  0  0  0  0  0  0  0  0
   30.8980    9.8260  -12.8810 C   0  0  0  0  0  0  0  0  0  0  0  0
   30.1320   10.9790  -13.0040 C   0  0  0  0  0  0  0  0  0  0  0  0
   28.8890   11.0580  -12.3680 C   0  0  0  0  0  0  0  0  0  0  0  0
   25.5020    9.2250   -9.7200 N   0  0  0  0  0  0  0  0  0  0  0  0
   25.2680    9.2790   -8.2450 C   0  0  0  0  0  0  0  0  0  0  0  0
   24.6040    8.2100   -7.6550 C   0  0  0  0  0  0  0  0  0  0  0  0
   24.3540    8.2150   -6.2880 C   0  0  0  0  0  0  0  0  0  0  0  0
   24.7740    9.2880   -5.5100 C   0  0  0  0  0  0  0  0  0  0  0  0
   25.4360   10.3570   -6.0980 C   0  0  0  0  0  0  0  0  0  0  0  0
   25.6860   10.3530   -7.4670 N   0  0  0  0  0  0  0  0  0  0  0  0
   28.3340   12.2820  -12.6220 N   0  0  0  0  0  0  0  0  0  0  0  0
   28.9960   13.1750  -13.3810 C   0  0  0  0  0  0  0  0  0  0  0  0
   30.2060   12.5030  -13.7240 O   0  0  0  0  0  0  0  0  0  0  0  0
   25.8860   11.5230   -5.2550 C   0  0  1  0  0  0  0  0  0  0  0  0
   24.9100   12.6910   -5.3700 C   0  0  1  0  0  0  0  0  0  0  0  0
   29.3777    6.9264  -10.6430 H   0  0  0  0  0  0  0  0  0  0  0  0
   26.4860   10.8462  -11.1804 H   0  0  0  0  0  0  0  0  0  0  0  0
   31.8782    9.7615  -13.3760 H   0  0  0  0  0  0  0  0  0  0  0  0
   24.7161    9.4142  -10.3583 H   0  0  0  0  0  0  0  0  0  0  0  0
   24.2761    7.3594   -8.2706 H   0  0  0  0  0  0  0  0  0  0  0  0
   23.8244    7.3710   -5.8220 H   0  0  0  0  0  0  0  0  0  0  0  0
   24.5814    9.2898   -4.4270 H   0  0  0  0  0  0  0  0  0  0  0  0
   28.6776   14.1876  -13.6696 H   0  0  0  0  0  0  0  0  0  0  0  0
   25.9442   11.2052   -4.2035 H   0  0  0  0  0  0  0  0  0  0  0  0
   26.8720   11.8541   -5.6131 H   0  0  0  0  0  0  0  0  0  0  0  0
   24.6255   13.0315   -4.3635 H   0  0  0  0  0  0  0  0  0  0  0  0
   25.3898   13.5175   -5.9147 H   0  0  0  0  0  0  0  0  0  0  0  0
   24.0114   12.3657   -5.9147 H   0  0  0  0  0  0  0  0  0  0  0  0
  1 11  1  0
  1  2  2  0
  1  6  1  0
  2  8  1  0
  2  3  1  0
  3  4  1  0
  4  5  1  0
  4  7  2  0
  5  6  2  0
  5 12  1  0
  8  9  2  0
  9 10  1  0
 10 21  1  0
 10 11  2  0
 11 19  1  0
 19 20  2  0
 20 21  1  0
 12 13  1  0
 13 14  2  0
 13 18  1  0
 14 15  1  0
 15 16  2  0
 16 17  1  0
 17 18  2  0
 17 22  1  0
 22 23  1  0
  3 24  1  0
  6 25  1  0
  9 26  1  0
 12 27  1  0
 14 28  1  0
 15 29  1  0
 16 30  1  0
 20 31  1  0
 22 32  1  1
 22 33  1  0
 23 34  1  1
 23 35  1  0
 23 36  1  0
M  END
>  <Pose ID>  (42)
169

>  <Score>  (42)
-7.71245813369751

>  <smiles>  (42)
CCc1cccc(Nc2cc3c(ncc4ocnc43)[nH]c2=O)n1

$$$$

     RDKit          3D

 37 40  0  0  0  0  0  0  0  0999 V2000
   27.9640    7.8720  -10.3010 C   0  0  0  0  0  0  0  0  0  0  0  0
   28.9560    7.1410  -10.9410 C   0  0  0  0  0  0  0  0  0  0  0  0
   29.8260    7.7720  -11.8240 N   0  0  0  0  0  0  0  0  0  0  0  0
   29.7020    9.1340  -12.0680 C   0  0  0  0  0  0  0  0  0  0  0  0
   27.1410    7.0670   -9.4010 O   0  0  0  0  0  0  0  0  0  0  0  0
   28.7060    9.8650  -11.4260 C   0  0  0  0  0  0  0  0  0  0  0  0
   27.8390    9.2350  -10.5430 C   0  0  0  0  0  0  0  0  0  0  0  0
   30.4090    9.9560  -12.8660 N   0  0  0  0  0  0  0  0  0  0  0  0
   29.9480   11.1280  -12.7830 C   0  0  0  0  0  0  0  0  0  0  0  0
   28.8690   11.1230  -11.9090 C   0  0  0  0  0  0  0  0  0  0  0  0
   26.2840    7.6000   -8.4340 C   0  0  0  0  0  0  0  0  0  0  0  0
   25.4670    8.6490   -8.8250 N   0  0  0  0  0  0  0  0  0  0  0  0
   24.7270    9.0450   -7.7240 N   0  0  0  0  0  0  0  0  0  0  0  0
   25.0590    8.2630   -6.6870 C   0  0  0  0  0  0  0  0  0  0  0  0
   25.9780    7.3830   -7.1020 C   0  0  0  0  0  0  0  0  0  0  0  0
   23.7810   10.1270   -7.8210 C   0  0  1  0  0  0  0  0  0  0  0  0
   30.3340   12.3100  -13.4050 C   0  0  0  0  0  0  0  0  0  0  0  0
   29.6360   13.4850  -13.1550 C   0  0  0  0  0  0  0  0  0  0  0  0
   28.5560   13.4800  -12.2830 C   0  0  0  0  0  0  0  0  0  0  0  0
   28.1720   12.2990  -11.6580 N   0  0  0  0  0  0  0  0  0  0  0  0
   27.7990   14.7570  -12.0110 C   0  0  1  0  0  0  0  0  0  0  0  0
   24.4950    8.3580   -5.2910 C   0  0  1  0  0  0  0  0  0  0  0  0
   29.0539    6.0622  -10.7496 H   0  0  0  0  0  0  0  0  0  0  0  0
   30.5625    7.2292  -12.2972 H   0  0  0  0  0  0  0  0  0  0  0  0
   27.0537    9.8143  -10.0353 H   0  0  0  0  0  0  0  0  0  0  0  0
   26.4262    6.5990   -6.4739 H   0  0  0  0  0  0  0  0  0  0  0  0
   23.4942   10.4550   -6.8110 H   0  0  0  0  0  0  0  0  0  0  0  0
   24.2393   10.9673   -8.3631 H   0  0  0  0  0  0  0  0  0  0  0  0
   22.8870    9.7850   -8.3631 H   0  0  0  0  0  0  0  0  0  0  0  0
   31.1912   12.3149  -14.0944 H   0  0  0  0  0  0  0  0  0  0  0  0
   29.9395   14.4201  -13.6485 H   0  0  0  0  0  0  0  0  0  0  0  0
   27.7104   14.9065  -10.9248 H   0  0  0  0  0  0  0  0  0  0  0  0
   28.3400   15.6056  -12.4550 H   0  0  0  0  0  0  0  0  0  0  0  0
   26.7948   14.6896  -12.4550 H   0  0  0  0  0  0  0  0  0  0  0  0
   25.3043    8.2217   -4.5585 H   0  0  0  0  0  0  0  0  0  0  0  0
   24.0339    9.3465   -5.1483 H   0  0  0  0  0  0  0  0  0  0  0  0
   23.7356    7.5751   -5.1483 H   0  0  0  0  0  0  0  0  0  0  0  0
  1  2  2  0
  1  7  1  0
  1  5  1  0
  2  3  1  0
  3  4  1  0
  4  8  2  0
  4  6  1  0
  6 10  1  0
  6  7  2  0
  8  9  1  0
  9 17  1  0
  9 10  2  0
 10 20  1  0
 17 18  2  0
 18 19  1  0
 19 21  1  0
 19 20  2  0
  5 11  1  0
 11 12  2  0
 11 15  1  0
 12 13  1  0
 13 16  1  0
 13 14  1  0
 14 15  2  0
 14 22  1  0
  2 23  1  0
  3 24  1  0
  7 25  1  0
 15 26  1  0
 16 27  1  1
 16 28  1  0
 16 29  1  0
 17 30  1  0
 18 31  1  0
 21 32  1  1
 21 33  1  0
 21 34  1  0
 22 35  1  1
 22 36  1  0
 22 37  1  0
M  END
>  <Pose ID>  (43)
517

>  <Score>  (43)
-7.701603889465332

>  <smiles>  (43)
Cc1ccc2nc3[nH]cc(Oc4cc(C)n(C)n4)cc-3c2n1

$$$$

     RDKit          3D

 38 41  0  0  0  0  0  0  0  0999 V2000
   28.0400    7.8910  -10.3110 C   0  0  0  0  0  0  0  0  0  0  0  0
   29.0380    7.1510  -10.9310 C   0  0  0  0  0  0  0  0  0  0  0  0
   29.9080    7.7650  -11.8250 N   0  0  0  0  0  0  0  0  0  0  0  0
   29.7810    9.1220  -12.0970 C   0  0  0  0  0  0  0  0  0  0  0  0
   27.2170    7.1030   -9.3980 O   0  0  0  0  0  0  0  0  0  0  0  0
   28.7810    9.8630  -11.4780 C   0  0  0  0  0  0  0  0  0  0  0  0
   27.9130    9.2470  -10.5830 C   0  0  0  0  0  0  0  0  0  0  0  0
   30.4880    9.9290  -12.9100 N   0  0  0  0  0  0  0  0  0  0  0  0
   30.0280   11.0970  -12.8560 C   0  0  0  0  0  0  0  0  0  0  0  0
   28.9480   11.0970  -11.9810 C   0  0  0  0  0  0  0  0  0  0  0  0
   26.3540    7.6530   -8.4450 C   0  0  0  0  0  0  0  0  0  0  0  0
   25.5350    8.6900   -8.8620 N   0  0  0  0  0  0  0  0  0  0  0  0
   24.7890    9.1050   -7.7740 N   0  0  0  0  0  0  0  0  0  0  0  0
   25.1200    8.3470   -6.7180 C   0  0  0  0  0  0  0  0  0  0  0  0
   26.0420    7.4630   -7.1110 C   0  0  0  0  0  0  0  0  0  0  0  0
   23.8390   10.1820   -7.8980 C   0  0  1  0  0  0  0  0  0  0  0  0
   30.4020   12.2690  -13.5010 C   0  0  0  0  0  0  0  0  0  0  0  0
   29.6970   13.4440  -13.2710 C   0  0  0  0  0  0  0  0  0  0  0  0
   28.6170   13.4460  -12.3950 C   0  0  0  0  0  0  0  0  0  0  0  0
   28.2420   12.2730  -11.7510 C   0  0  0  0  0  0  0  0  0  0  0  0
   27.8510   14.7210  -12.1440 C   0  0  1  0  0  0  0  0  0  0  0  0
   27.8000   15.0810  -10.6360 C   0  0  1  0  0  0  0  0  0  0  0  0
   29.1405    6.0774  -10.7146 H   0  0  0  0  0  0  0  0  0  0  0  0
   30.6465    7.2143  -12.2856 H   0  0  0  0  0  0  0  0  0  0  0  0
   27.1247    9.8346  -10.0898 H   0  0  0  0  0  0  0  0  0  0  0  0
   24.7043    8.4374   -5.7036 H   0  0  0  0  0  0  0  0  0  0  0  0
   26.4894    6.6933   -6.4650 H   0  0  0  0  0  0  0  0  0  0  0  0
   23.5383   10.5229   -6.8963 H   0  0  0  0  0  0  0  0  0  0  0  0
   24.3004   11.0166   -8.4462 H   0  0  0  0  0  0  0  0  0  0  0  0
   22.9533    9.8284   -8.4462 H   0  0  0  0  0  0  0  0  0  0  0  0
   31.2563   12.2669  -14.1939 H   0  0  0  0  0  0  0  0  0  0  0  0
   29.9930   14.3722  -13.7816 H   0  0  0  0  0  0  0  0  0  0  0  0
   27.3867   12.2746  -11.0593 H   0  0  0  0  0  0  0  0  0  0  0  0
   28.3399   15.5421  -12.6888 H   0  0  0  0  0  0  0  0  0  0  0  0
   26.8185   14.5713  -12.4927 H   0  0  0  0  0  0  0  0  0  0  0  0
   27.9294   14.1679  -10.0365 H   0  0  0  0  0  0  0  0  0  0  0  0
   28.6065   15.7912  -10.4011 H   0  0  0  0  0  0  0  0  0  0  0  0
   26.8280   15.5392  -10.4011 H   0  0  0  0  0  0  0  0  0  0  0  0
  1  2  2  0
  1  7  1  0
  1  5  1  0
  2  3  1  0
  3  4  1  0
  4  8  2  0
  4  6  1  0
  6 10  1  0
  6  7  2  0
  8  9  1  0
  9 17  1  0
  9 10  2  0
 10 20  1  0
 17 18  2  0
 18 19  1  0
 19 21  1  0
 19 20  2  0
 21 22  1  0
  5 11  1  0
 11 12  2  0
 11 15  1  0
 12 13  1  0
 13 16  1  0
 13 14  1  0
 14 15  2  0
  2 23  1  0
  3 24  1  0
  7 25  1  0
 14 26  1  0
 15 27  1  0
 16 28  1  1
 16 29  1  0
 16 30  1  0
 17 31  1  0
 18 32  1  0
 20 33  1  0
 21 34  1  6
 21 35  1  0
 22 36  1  1
 22 37  1  0
 22 38  1  0
M  END
>  <Pose ID>  (44)
501

>  <Score>  (44)
-7.694897651672363

>  <smiles>  (44)
CCc1ccc2nc3[nH]cc(Oc4ccn(C)n4)cc-3c2c1

$$$$

     RDKit          3D

 32 35  0  0  0  0  0  0  0  0999 V2000
   26.5650    6.5810   -8.7960 C   0  0  0  0  0  0  0  0  0  0  0  0
   27.5650    7.1790   -9.5550 N   0  0  0  0  0  0  0  0  0  0  0  0
   25.5200    7.3480   -8.2970 N   0  0  0  0  0  0  0  0  0  0  0  0
   25.4680    8.6490   -8.5610 C   0  0  0  0  0  0  0  0  0  0  0  0
   26.3710    9.4480   -9.2500 C   0  0  0  0  0  0  0  0  0  0  0  0
   27.5170    8.5430   -9.8170 C   0  0  0  0  0  0  0  0  0  0  0  0
   24.3510    9.2200   -7.9610 N   0  0  0  0  0  0  0  0  0  0  0  0
   24.1380   10.5900   -8.0500 C   0  0  0  0  0  0  0  0  0  0  0  0
   25.0420   11.3900   -8.7410 N   0  0  0  0  0  0  0  0  0  0  0  0
   26.1600   10.8330   -9.3390 C   0  0  0  0  0  0  0  0  0  0  0  0
   27.0770   11.6440  -10.0740 C   0  0  0  0  0  0  0  0  0  0  0  0
   27.2460   11.2530  -11.3980 C   0  0  0  0  0  0  0  0  0  0  0  0
   27.8960   12.6250   -9.5300 C   0  0  0  0  0  0  0  0  0  0  0  0
   28.8440   13.1360  -10.2460 C   0  0  0  0  0  0  0  0  0  0  0  0
   29.0730   12.8680  -11.5900 C   0  0  0  0  0  0  0  0  0  0  0  0
   28.2350   11.8420  -12.1760 C   0  0  0  0  0  0  0  0  0  0  0  0
   30.0780   13.5440  -12.2710 C   0  0  0  0  0  0  0  0  0  0  0  0
   30.8530   14.4880  -11.6100 N   0  0  0  0  0  0  0  0  0  0  0  0
   30.6240   14.7570  -10.2660 C   0  0  0  0  0  0  0  0  0  0  0  0
   29.6200   14.0800   -9.5840 C   0  0  0  0  0  0  0  0  0  0  0  0
   30.3270   13.2520  -13.7310 C   0  0  1  0  0  0  0  0  0  0  0  0
   26.6015    5.5009   -8.5908 H   0  0  0  0  0  0  0  0  0  0  0  0
   28.3029    8.9982  -10.4376 H   0  0  0  0  0  0  0  0  0  0  0  0
   23.2550   11.0417   -7.5743 H   0  0  0  0  0  0  0  0  0  0  0  0
   26.5964   10.4771  -11.8293 H   0  0  0  0  0  0  0  0  0  0  0  0
   27.7392   12.9654   -8.4958 H   0  0  0  0  0  0  0  0  0  0  0  0
   28.3796   11.5336  -13.2219 H   0  0  0  0  0  0  0  0  0  0  0  0
   31.2370   15.5053   -9.7423 H   0  0  0  0  0  0  0  0  0  0  0  0
   29.4394   14.2914   -8.5197 H   0  0  0  0  0  0  0  0  0  0  0  0
   31.0383   12.4179  -13.8220 H   0  0  0  0  0  0  0  0  0  0  0  0
   29.3787   12.9799  -14.2174 H   0  0  0  0  0  0  0  0  0  0  0  0
   30.7455   14.1454  -14.2174 H   0  0  0  0  0  0  0  0  0  0  0  0
 11 12  2  0
 11 13  1  0
 11 10  1  0
 12 16  1  0
 13 14  2  0
 14 15  1  0
 14 20  1  0
 15 17  1  0
 15 16  2  0
 17 21  1  0
 17 18  2  0
 18 19  1  0
 19 20  2  0
  1  2  2  0
  1  3  1  0
  2  6  1  0
  3  4  2  0
  4  5  1  0
  4  7  1  0
  5  6  2  0
  5 10  1  0
  7  8  2  0
  8  9  1  0
  9 10  2  0
  1 22  1  0
  6 23  1  0
  8 24  1  0
 12 25  1  0
 13 26  1  0
 16 27  1  0
 19 28  1  0
 20 29  1  0
 21 30  1  1
 21 31  1  0
 21 32  1  0
M  END
>  <Pose ID>  (45)
19

>  <Score>  (45)
-7.684620380401611

>  <smiles>  (45)
Cc1nccc2cc(-c3ncnc4ncncc34)ccc12

$$$$

     RDKit          3D

 29 31  0  0  0  0  0  0  0  0999 V2000
   28.3390    9.9210  -11.5080 C   0  0  0  0  0  0  0  0  0  0  0  0
   29.0770    8.7430  -11.4940 C   0  0  0  0  0  0  0  0  0  0  0  0
   28.6650    7.6210  -10.7900 N   0  0  0  0  0  0  0  0  0  0  0  0
   27.4520    7.6570  -10.1110 C   0  0  0  0  0  0  0  0  0  0  0  0
   26.6730    8.8080  -10.1400 C   0  0  0  0  0  0  0  0  0  0  0  0
   27.0970    9.9070  -10.8600 C   0  0  0  0  0  0  0  0  0  0  0  0
   27.0640    6.6600   -9.4820 O   0  0  0  0  0  0  0  0  0  0  0  0
   30.2940    8.6790  -12.1650 N   0  0  0  0  0  0  0  0  0  0  0  0
   30.7680    9.7890  -12.8520 C   0  0  0  0  0  0  0  0  0  0  0  0
   30.0280   10.9650  -12.8670 C   0  0  0  0  0  0  0  0  0  0  0  0
   28.8100   11.0280  -12.1830 C   0  0  0  0  0  0  0  0  0  0  0  0
   25.4680    9.0940   -9.5490 N   0  0  0  0  0  0  0  0  0  0  0  0
   25.2780    9.0430   -8.0780 C   0  0  0  0  0  0  0  0  0  0  0  0
   24.6130    7.9510   -7.5320 C   0  0  0  0  0  0  0  0  0  0  0  0
   24.4200    7.8700   -6.1590 C   0  0  0  0  0  0  0  0  0  0  0  0
   24.8920    8.8810   -5.3300 C   0  0  0  0  0  0  0  0  0  0  0  0
   25.5570    9.9730   -5.8750 C   0  0  0  0  0  0  0  0  0  0  0  0
   25.7500   10.0540   -7.2490 C   0  0  0  0  0  0  0  0  0  0  0  0
   29.2494    6.7731  -10.7705 H   0  0  0  0  0  0  0  0  0  0  0  0
   26.4455   10.7908  -10.9263 H   0  0  0  0  0  0  0  0  0  0  0  0
   31.7293    9.7372  -13.3843 H   0  0  0  0  0  0  0  0  0  0  0  0
   30.3991   11.8435  -13.4151 H   0  0  0  0  0  0  0  0  0  0  0  0
   28.2271   11.9609  -12.1832 H   0  0  0  0  0  0  0  0  0  0  0  0
   24.6693    9.3525  -10.1458 H   0  0  0  0  0  0  0  0  0  0  0  0
   24.2395    7.1507   -8.1878 H   0  0  0  0  0  0  0  0  0  0  0  0
   23.8936    7.0058   -5.7276 H   0  0  0  0  0  0  0  0  0  0  0  0
   24.7392    8.8168   -4.2426 H   0  0  0  0  0  0  0  0  0  0  0  0
   25.9305   10.7731   -5.2190 H   0  0  0  0  0  0  0  0  0  0  0  0
   26.2763   10.9182   -7.6804 H   0  0  0  0  0  0  0  0  0  0  0  0
  1 11  1  0
  1  2  2  0
  1  6  1  0
  2  8  1  0
  2  3  1  0
  3  4  1  0
  4  5  1  0
  4  7  2  0
  5  6  2  0
  5 12  1  0
  8  9  2  0
  9 10  1  0
 10 11  2  0
 12 13  1  0
 13 14  2  0
 13 18  1  0
 14 15  1  0
 15 16  2  0
 16 17  1  0
 17 18  2  0
  3 19  1  0
  6 20  1  0
  9 21  1  0
 10 22  1  0
 11 23  1  0
 12 24  1  0
 14 25  1  0
 15 26  1  0
 16 27  1  0
 17 28  1  0
 18 29  1  0
M  END
>  <Pose ID>  (46)
148

>  <Score>  (46)
-7.645871639251709

>  <smiles>  (46)
O=c1[nH]c2ncccc2cc1Nc1ccccc1

$$$$

     RDKit          3D

 38 41  0  0  0  0  0  0  0  0999 V2000
   28.0380    7.8910  -10.3400 C   0  0  0  0  0  0  0  0  0  0  0  0
   29.0330    7.1500  -10.9620 C   0  0  0  0  0  0  0  0  0  0  0  0
   29.9130    7.7650  -11.8440 N   0  0  0  0  0  0  0  0  0  0  0  0
   29.7990    9.1260  -12.1030 C   0  0  0  0  0  0  0  0  0  0  0  0
   27.2030    7.1010   -9.4400 O   0  0  0  0  0  0  0  0  0  0  0  0
   28.8020    9.8700  -11.4810 C   0  0  0  0  0  0  0  0  0  0  0  0
   27.9240    9.2520  -10.5970 C   0  0  0  0  0  0  0  0  0  0  0  0
   30.5170    9.9350  -12.9040 N   0  0  0  0  0  0  0  0  0  0  0  0
   30.0670   11.1060  -12.8390 C   0  0  0  0  0  0  0  0  0  0  0  0
   28.9820   11.1070  -11.9700 C   0  0  0  0  0  0  0  0  0  0  0  0
   26.3400    7.6480   -8.4860 C   0  0  0  0  0  0  0  0  0  0  0  0
   25.5320    8.6970   -8.8960 N   0  0  0  0  0  0  0  0  0  0  0  0
   24.7840    9.1070   -7.8070 N   0  0  0  0  0  0  0  0  0  0  0  0
   25.1020    8.3350   -6.7580 C   0  0  0  0  0  0  0  0  0  0  0  0
   26.0200    7.4480   -7.1550 C   0  0  0  0  0  0  0  0  0  0  0  0
   23.8440   10.1930   -7.9240 C   0  0  1  0  0  0  0  0  0  0  0  0
   30.4550   12.2820  -13.4700 C   0  0  0  0  0  0  0  0  0  0  0  0
   29.7580   13.4620  -13.2310 C   0  0  0  0  0  0  0  0  0  0  0  0
   28.6740   13.4640  -12.3610 C   0  0  0  0  0  0  0  0  0  0  0  0
   28.2870   12.2870  -11.7320 C   0  0  0  0  0  0  0  0  0  0  0  0
   24.2870   11.5200   -7.2850 C   0  0  1  0  0  0  0  0  0  0  0  0
   27.1100   12.2890  -10.7870 C   0  0  1  0  0  0  0  0  0  0  0  0
   29.1252    6.0733  -10.7563 H   0  0  0  0  0  0  0  0  0  0  0  0
   30.6496    7.2126  -12.3058 H   0  0  0  0  0  0  0  0  0  0  0  0
   27.1386    9.8410  -10.1008 H   0  0  0  0  0  0  0  0  0  0  0  0
   24.6803    8.4173   -5.7454 H   0  0  0  0  0  0  0  0  0  0  0  0
   26.4589    6.6692   -6.5140 H   0  0  0  0  0  0  0  0  0  0  0  0
   23.6663   10.3743   -8.9943 H   0  0  0  0  0  0  0  0  0  0  0  0
   22.9452    9.8768   -7.3742 H   0  0  0  0  0  0  0  0  0  0  0  0
   31.3131   12.2797  -14.1583 H   0  0  0  0  0  0  0  0  0  0  0  0
   30.0646   14.3930  -13.7303 H   0  0  0  0  0  0  0  0  0  0  0  0
   28.1229   14.3967  -12.1706 H   0  0  0  0  0  0  0  0  0  0  0  0
   24.2562   11.4276   -6.1893 H   0  0  0  0  0  0  0  0  0  0  0  0
   25.3128   11.7563   -7.6043 H   0  0  0  0  0  0  0  0  0  0  0  0
   23.6089   12.3251   -7.6043 H   0  0  0  0  0  0  0  0  0  0  0  0
   27.4734   12.2884   -9.7488 H   0  0  0  0  0  0  0  0  0  0  0  0
   26.5010   13.1882  -10.9618 H   0  0  0  0  0  0  0  0  0  0  0  0
   26.4979   11.3919  -10.9618 H   0  0  0  0  0  0  0  0  0  0  0  0
  1  2  2  0
  1  7  1  0
  1  5  1  0
  2  3  1  0
  3  4  1  0
  4  8  2  0
  4  6  1  0
  6 10  1  0
  6  7  2  0
  8  9  1  0
  9 17  1  0
  9 10  2  0
 10 20  1  0
 17 18  2  0
 18 19  1  0
 19 20  2  0
 20 22  1  0
  5 11  1  0
 11 12  2  0
 11 15  1  0
 12 13  1  0
 13 16  1  0
 13 14  1  0
 14 15  2  0
 16 21  1  0
  2 23  1  0
  3 24  1  0
  7 25  1  0
 14 26  1  0
 15 27  1  0
 16 28  1  6
 16 29  1  0
 17 30  1  0
 18 31  1  0
 19 32  1  0
 21 33  1  1
 21 34  1  0
 21 35  1  0
 22 36  1  1
 22 37  1  0
 22 38  1  0
M  END
>  <Pose ID>  (47)
505

>  <Score>  (47)
-7.629878997802734

>  <smiles>  (47)
CCn1ccc(Oc2c[nH]c3nc4cccc(C)c4c-3c2)n1

$$$$

     RDKit          3D

 31 34  0  0  0  0  0  0  0  0999 V2000
   28.4340   10.0570  -11.5810 C   0  0  0  0  0  0  0  0  0  0  0  0
   29.2020    8.8980  -11.6190 C   0  0  0  0  0  0  0  0  0  0  0  0
   28.8150    7.7330  -10.9710 N   0  0  0  0  0  0  0  0  0  0  0  0
   27.6000    7.7060  -10.2970 C   0  0  0  0  0  0  0  0  0  0  0  0
   26.7910    8.8370  -10.2770 C   0  0  0  0  0  0  0  0  0  0  0  0
   27.1900    9.9800  -10.9420 C   0  0  0  0  0  0  0  0  0  0  0  0
   27.2350    6.6710   -9.7190 O   0  0  0  0  0  0  0  0  0  0  0  0
   30.4240    8.8960  -12.2840 N   0  0  0  0  0  0  0  0  0  0  0  0
   30.8720   10.0490  -12.9150 C   0  0  0  0  0  0  0  0  0  0  0  0
   30.1010   11.2070  -12.8800 C   0  0  0  0  0  0  0  0  0  0  0  0
   28.8790   11.2060  -12.2010 C   0  0  0  0  0  0  0  0  0  0  0  0
   25.5760    9.0630   -9.6790 N   0  0  0  0  0  0  0  0  0  0  0  0
   25.3890    8.9430   -8.2020 C   0  0  0  0  0  0  0  0  0  0  0  0
   24.7430    7.8110   -7.7220 C   0  0  0  0  0  0  0  0  0  0  0  0
   24.5390    7.6540   -6.3560 C   0  0  0  0  0  0  0  0  0  0  0  0
   24.9810    8.6310   -5.4720 C   0  0  0  0  0  0  0  0  0  0  0  0
   25.6250    9.7640   -5.9520 C   0  0  0  0  0  0  0  0  0  0  0  0
   25.8300    9.9210   -7.3180 N   0  0  0  0  0  0  0  0  0  0  0  0
   30.3240   12.4800  -13.4340 C   0  0  0  0  0  0  0  0  0  0  0  0
   29.1990   13.3100  -13.0860 C   0  0  0  0  0  0  0  0  0  0  0  0
   28.4420   12.5530  -12.3440 O   0  0  0  0  0  0  0  0  0  0  0  0
   29.4202    6.8998  -10.9895 H   0  0  0  0  0  0  0  0  0  0  0  0
   26.5160   10.8488  -10.9704 H   0  0  0  0  0  0  0  0  0  0  0  0
   31.8370   10.0470  -13.4429 H   0  0  0  0  0  0  0  0  0  0  0  0
   24.7703    9.3228  -10.2657 H   0  0  0  0  0  0  0  0  0  0  0  0
   24.3928    7.0388   -8.4228 H   0  0  0  0  0  0  0  0  0  0  0  0
   24.0282    6.7573   -5.9751 H   0  0  0  0  0  0  0  0  0  0  0  0
   24.8206    8.5068   -4.3909 H   0  0  0  0  0  0  0  0  0  0  0  0
   25.9729   10.5372   -5.2512 H   0  0  0  0  0  0  0  0  0  0  0  0
   31.1990   12.7866  -14.0259 H   0  0  0  0  0  0  0  0  0  0  0  0
   29.0188   14.3540  -13.3820 H   0  0  0  0  0  0  0  0  0  0  0  0
  1 11  1  0
  1  2  2  0
  1  6  1  0
  2  8  1  0
  2  3  1  0
  3  4  1  0
  4  5  1  0
  4  7  2  0
  5  6  2  0
  5 12  1  0
  8  9  2  0
  9 10  1  0
 10 19  1  0
 10 11  2  0
 11 21  1  0
 19 20  2  0
 20 21  1  0
 12 13  1  0
 13 14  2  0
 13 18  1  0
 14 15  1  0
 15 16  2  0
 16 17  1  0
 17 18  2  0
  3 22  1  0
  6 23  1  0
  9 24  1  0
 12 25  1  0
 14 26  1  0
 15 27  1  0
 16 28  1  0
 17 29  1  0
 19 30  1  0
 20 31  1  0
M  END
>  <Pose ID>  (48)
156

>  <Score>  (48)
-7.618492126464844

>  <smiles>  (48)
O=c1[nH]c2ncc3ccoc3c2cc1Nc1ccccn1

$$$$

     RDKit          3D

 36 39  0  0  0  0  0  0  0  0999 V2000
   28.4010   10.0700  -11.6320 C   0  0  0  0  0  0  0  0  0  0  0  0
   29.1950    8.9310  -11.5300 C   0  0  0  0  0  0  0  0  0  0  0  0
   28.8090    7.8250  -10.7870 N   0  0  0  0  0  0  0  0  0  0  0  0
   27.5700    7.8330  -10.1560 C   0  0  0  0  0  0  0  0  0  0  0  0
   26.7380    8.9420  -10.2720 C   0  0  0  0  0  0  0  0  0  0  0  0
   27.1370   10.0250  -11.0300 C   0  0  0  0  0  0  0  0  0  0  0  0
   27.2050    6.8510   -9.4930 O   0  0  0  0  0  0  0  0  0  0  0  0
   30.4390    8.8950  -12.1510 N   0  0  0  0  0  0  0  0  0  0  0  0
   30.8860    9.9930  -12.8740 C   0  0  0  0  0  0  0  0  0  0  0  0
   30.0920   11.1290  -12.9770 C   0  0  0  0  0  0  0  0  0  0  0  0
   28.8450   11.1640  -12.3430 C   0  0  0  0  0  0  0  0  0  0  0  0
   25.4980    9.1960   -9.7420 N   0  0  0  0  0  0  0  0  0  0  0  0
   25.2600    9.2130   -8.2660 C   0  0  0  0  0  0  0  0  0  0  0  0
   24.6210    8.1160   -7.7030 C   0  0  0  0  0  0  0  0  0  0  0  0
   24.3700    8.0860   -6.3340 C   0  0  0  0  0  0  0  0  0  0  0  0
   24.7590    9.1540   -5.5350 C   0  0  0  0  0  0  0  0  0  0  0  0
   25.3990   10.2510   -6.1000 C   0  0  0  0  0  0  0  0  0  0  0  0
   25.6490   10.2810   -7.4670 N   0  0  0  0  0  0  0  0  0  0  0  0
   30.3090   12.3490  -13.6450 C   0  0  0  0  0  0  0  0  0  0  0  0
   29.2320   13.1960  -13.3820 N   0  0  0  0  0  0  0  0  0  0  0  0
   28.4400   12.5090  -12.5490 O   0  0  0  0  0  0  0  0  0  0  0  0
   25.8210   11.4090   -5.2300 C   0  0  1  0  0  0  0  0  0  0  0  0
   24.8180   12.5560   -5.3230 C   0  0  1  0  0  0  0  0  0  0  0  0
   29.4318    7.0089  -10.7039 H   0  0  0  0  0  0  0  0  0  0  0  0
   26.4470   10.8711  -11.1641 H   0  0  0  0  0  0  0  0  0  0  0  0
   31.8695    9.9637  -13.3657 H   0  0  0  0  0  0  0  0  0  0  0  0
   24.7094    9.3800  -10.3786 H   0  0  0  0  0  0  0  0  0  0  0  0
   24.3136    7.2720   -8.3379 H   0  0  0  0  0  0  0  0  0  0  0  0
   23.8645    7.2181   -5.8856 H   0  0  0  0  0  0  0  0  0  0  0  0
   24.5602    9.1314   -4.4534 H   0  0  0  0  0  0  0  0  0  0  0  0
   31.1811   12.5934  -14.2693 H   0  0  0  0  0  0  0  0  0  0  0  0
   25.8842   11.0700   -4.1854 H   0  0  0  0  0  0  0  0  0  0  0  0
   26.8002   11.7702   -5.5774 H   0  0  0  0  0  0  0  0  0  0  0  0
   24.5355   12.8791   -4.3102 H   0  0  0  0  0  0  0  0  0  0  0  0
   25.2740   13.3990   -5.8629 H   0  0  0  0  0  0  0  0  0  0  0  0
   23.9218   12.2165   -5.8629 H   0  0  0  0  0  0  0  0  0  0  0  0
  1 11  1  0
  1  2  2  0
  1  6  1  0
  2  8  1  0
  2  3  1  0
  3  4  1  0
  4  5  1  0
  4  7  2  0
  5  6  2  0
  5 12  1  0
  8  9  2  0
  9 10  1  0
 10 19  1  0
 10 11  2  0
 11 21  1  0
 19 20  2  0
 20 21  1  0
 12 13  1  0
 13 14  2  0
 13 18  1  0
 14 15  1  0
 15 16  2  0
 16 17  1  0
 17 18  2  0
 17 22  1  0
 22 23  1  0
  3 24  1  0
  6 25  1  0
  9 26  1  0
 12 27  1  0
 14 28  1  0
 15 29  1  0
 16 30  1  0
 19 31  1  0
 22 32  1  1
 22 33  1  0
 23 34  1  1
 23 35  1  0
 23 36  1  0
M  END
>  <Pose ID>  (49)
155

>  <Score>  (49)
-7.616941928863525

>  <smiles>  (49)
CCc1cccc(Nc2cc3c(ncc4cnoc43)[nH]c2=O)n1

$$$$

     RDKit          3D

 36 39  0  0  0  0  0  0  0  0999 V2000
   26.3530    6.5720   -8.5430 C   0  0  0  0  0  0  0  0  0  0  0  0
   27.3220    7.1100   -9.3790 N   0  0  0  0  0  0  0  0  0  0  0  0
   25.3770    7.3940   -7.9920 N   0  0  0  0  0  0  0  0  0  0  0  0
   25.3600    8.6910   -8.2820 C   0  0  0  0  0  0  0  0  0  0  0  0
   26.2490    9.4360   -9.0500 C   0  0  0  0  0  0  0  0  0  0  0  0
   27.3120    8.4690   -9.6700 C   0  0  0  0  0  0  0  0  0  0  0  0
   24.3120    9.3210   -7.6230 N   0  0  0  0  0  0  0  0  0  0  0  0
   24.1510   10.6950   -7.7300 C   0  0  0  0  0  0  0  0  0  0  0  0
   25.0370   11.4420   -8.4980 N   0  0  0  0  0  0  0  0  0  0  0  0
   26.0870   10.8260   -9.1560 C   0  0  0  0  0  0  0  0  0  0  0  0
   26.9870   11.5790   -9.9710 C   0  0  0  0  0  0  0  0  0  0  0  0
   27.0490   11.1530  -11.2940 C   0  0  0  0  0  0  0  0  0  0  0  0
   27.8800   12.5360   -9.5070 C   0  0  0  0  0  0  0  0  0  0  0  0
   28.7620   13.0230  -10.3450 C   0  0  0  0  0  0  0  0  0  0  0  0
   28.8830   12.6370  -11.6740 C   0  0  0  0  0  0  0  0  0  0  0  0
   28.0080   11.6860  -12.1490 C   0  0  0  0  0  0  0  0  0  0  0  0
   29.8840   13.1840  -12.4690 C   0  0  0  0  0  0  0  0  0  0  0  0
   29.6410   13.9580   -9.8100 C   0  0  0  0  0  0  0  0  0  0  0  0
   30.6420   14.5050  -10.6030 C   0  0  0  0  0  0  0  0  0  0  0  0
   30.7620   14.1200  -11.9330 N   0  0  0  0  0  0  0  0  0  0  0  0
   30.3280   13.1140  -13.6780 C   0  0  1  0  0  0  0  0  0  0  0  0
   28.2630    8.9780  -10.5280 O   0  0  0  0  0  0  0  0  0  0  0  0
   29.3470    8.2070  -10.9540 C   0  0  1  0  0  0  0  0  0  0  0  0
   26.3576    5.4955   -8.3167 H   0  0  0  0  0  0  0  0  0  0  0  0
   23.3217   11.1936   -7.2068 H   0  0  0  0  0  0  0  0  0  0  0  0
   26.3411   10.3963  -11.6631 H   0  0  0  0  0  0  0  0  0  0  0  0
   27.8478   12.8769   -8.4617 H   0  0  0  0  0  0  0  0  0  0  0  0
   28.0668   11.3508  -13.1950 H   0  0  0  0  0  0  0  0  0  0  0  0
   29.5438   14.2648   -8.7581 H   0  0  0  0  0  0  0  0  0  0  0  0
   31.3392   15.2424  -10.1785 H   0  0  0  0  0  0  0  0  0  0  0  0
   31.4144   12.9427  -13.6603 H   0  0  0  0  0  0  0  0  0  0  0  0
   29.8342   12.2826  -14.2024 H   0  0  0  0  0  0  0  0  0  0  0  0
   30.1140   14.0570  -14.2024 H   0  0  0  0  0  0  0  0  0  0  0  0
   29.8893    7.8213  -10.0781 H   0  0  0  0  0  0  0  0  0  0  0  0
   28.9821    7.3644  -11.5597 H   0  0  0  0  0  0  0  0  0  0  0  0
   30.0233    8.8282  -11.5597 H   0  0  0  0  0  0  0  0  0  0  0  0
  1  2  2  0
  1  3  1  0
  2  6  1  0
  3  4  2  0
  4  5  1  0
  4  7  1  0
  5  6  2  0
  5 10  1  0
  6 22  1  0
  7  8  2  0
  8  9  1  0
  9 10  2  0
 10 11  1  0
 11 12  2  0
 11 13  1  0
 12 16  1  0
 13 14  2  0
 14 15  1  0
 14 18  1  0
 15 17  1  0
 15 16  2  0
 17 21  1  0
 17 20  2  0
 18 19  2  0
 19 20  1  0
 22 23  1  0
  1 24  1  0
  8 25  1  0
 12 26  1  0
 13 27  1  0
 16 28  1  0
 18 29  1  0
 19 30  1  0
 21 31  1  1
 21 32  1  0
 21 33  1  0
 23 34  1  1
 23 35  1  0
 23 36  1  0
M  END
>  <Pose ID>  (50)
41

>  <Score>  (50)
-7.605554103851318

>  <smiles>  (50)
COc1ncnc2ncnc(-c3ccc4c(C)nccc4c3)c12

$$$$

     RDKit          3D

 34 37  0  0  0  0  0  0  0  0999 V2000
   27.2100    8.1910   -9.5700 C   0  0  0  0  0  0  0  0  0  0  0  0
   27.0900    7.0620   -8.7660 N   0  0  0  0  0  0  0  0  0  0  0  0
   26.1420    7.0320   -7.7490 C   0  0  0  0  0  0  0  0  0  0  0  0
   25.3150    8.1300   -7.5350 C   0  0  0  0  0  0  0  0  0  0  0  0
   25.4340    9.2570   -8.3410 N   0  0  0  0  0  0  0  0  0  0  0  0
   26.3830    9.2880   -9.3570 C   0  0  0  0  0  0  0  0  0  0  0  0
   24.3180    8.2710   -6.5770 C   0  0  0  0  0  0  0  0  0  0  0  0
   23.9980    7.2430   -5.6990 C   0  0  0  0  0  0  0  0  0  0  0  0
   23.6150    9.4690   -6.5300 C   0  0  0  0  0  0  0  0  0  0  0  0
   22.9760    7.4090   -4.7760 N   0  0  0  0  0  0  0  0  0  0  0  0
   22.2710    8.6070   -4.7280 C   0  0  0  0  0  0  0  0  0  0  0  0
   24.3000   10.1990   -7.7070 N   0  0  0  0  0  0  0  0  0  0  0  0
   22.5900    9.6370   -5.6050 C   0  0  0  0  0  0  0  0  0  0  0  0
   28.1680    8.2210  -10.5980 C   0  0  0  0  0  0  0  0  0  0  0  0
   29.2210    9.1290  -10.6180 O   0  0  0  0  0  0  0  0  0  0  0  0
   28.2270    7.4130  -11.6970 N   0  0  0  0  0  0  0  0  0  0  0  0
   29.8830    8.8140  -11.7800 C   0  0  0  0  0  0  0  0  0  0  0  0
   29.2840    7.7650  -12.4620 C   0  0  0  0  0  0  0  0  0  0  0  0
   21.1590    8.7880   -3.7250 C   0  0  2  0  0  0  0  0  0  0  0  0
   21.2480   10.0410   -2.8630 C   0  0  1  0  0  0  0  0  0  0  0  0
   21.1230    7.5690   -2.7710 C   0  0  1  0  0  0  0  0  0  0  0  0
   26.0460    6.1394   -7.1133 H   0  0  0  0  0  0  0  0  0  0  0  0
   26.4793   10.1808   -9.9923 H   0  0  0  0  0  0  0  0  0  0  0  0
   24.5561    6.2958   -5.7359 H   0  0  0  0  0  0  0  0  0  0  0  0
   22.0322   10.5844   -5.5675 H   0  0  0  0  0  0  0  0  0  0  0  0
   30.7863    9.3350  -12.1301 H   0  0  0  0  0  0  0  0  0  0  0  0
   29.6000    7.3178  -13.4160 H   0  0  0  0  0  0  0  0  0  0  0  0
   20.2487    8.8880   -4.3344 H   0  0  0  0  0  0  0  0  0  0  0  0
   21.2278    9.7572   -1.8004 H   0  0  0  0  0  0  0  0  0  0  0  0
   22.1861   10.5716   -3.0831 H   0  0  0  0  0  0  0  0  0  0  0  0
   20.3943   10.6989   -3.0831 H   0  0  0  0  0  0  0  0  0  0  0  0
   21.1333    7.9190   -1.7282 H   0  0  0  0  0  0  0  0  0  0  0  0
   20.2073    6.9875   -2.9535 H   0  0  0  0  0  0  0  0  0  0  0  0
   22.0028    6.9345   -2.9535 H   0  0  0  0  0  0  0  0  0  0  0  0
  1 14  1  0
  1  6  2  0
  1  2  1  0
  2  3  2  0
  3  4  1  0
  4  5  1  0
  4  7  2  0
  5  6  1  0
  5 12  1  0
  7  9  1  0
  7  8  1  0
  8 10  2  0
  9 12  2  0
  9 13  1  0
 10 11  1  0
 11 13  2  0
 11 19  1  0
 14 16  2  0
 14 15  1  0
 15 17  1  0
 16 18  1  0
 17 18  2  0
 19 20  1  0
 19 21  1  0
  3 22  1  0
  6 23  1  0
  8 24  1  0
 13 25  1  0
 17 26  1  0
 18 27  1  0
 19 28  1  6
 20 29  1  1
 20 30  1  0
 20 31  1  0
 21 32  1  1
 21 33  1  0
 21 34  1  0
M  END
>  <Pose ID>  (51)
71

>  <Score>  (51)
-7.602870464324951

>  <smiles>  (51)
CC(C)c1cc2nn3cc(-c4ncco4)ncc3c2cn1

$$$$

     RDKit          3D

 33 36  0  0  0  0  0  0  0  0999 V2000
   28.3990   10.0710  -11.6290 C   0  0  0  0  0  0  0  0  0  0  0  0
   29.1920    8.9320  -11.5330 C   0  0  0  0  0  0  0  0  0  0  0  0
   28.8050    7.8220  -10.7950 N   0  0  0  0  0  0  0  0  0  0  0  0
   27.5660    7.8280  -10.1640 C   0  0  0  0  0  0  0  0  0  0  0  0
   26.7350    8.9380  -10.2750 C   0  0  0  0  0  0  0  0  0  0  0  0
   27.1350   10.0240  -11.0280 C   0  0  0  0  0  0  0  0  0  0  0  0
   27.2010    6.8430   -9.5060 O   0  0  0  0  0  0  0  0  0  0  0  0
   30.4360    8.8980  -12.1540 N   0  0  0  0  0  0  0  0  0  0  0  0
   30.8840    9.9990  -12.8720 C   0  0  0  0  0  0  0  0  0  0  0  0
   30.0900   11.1360  -12.9690 C   0  0  0  0  0  0  0  0  0  0  0  0
   28.8430   11.1690  -12.3350 C   0  0  0  0  0  0  0  0  0  0  0  0
   25.4950    9.1900   -9.7440 N   0  0  0  0  0  0  0  0  0  0  0  0
   25.2570    9.2000   -8.2680 C   0  0  0  0  0  0  0  0  0  0  0  0
   24.6170    8.1000   -7.7100 C   0  0  0  0  0  0  0  0  0  0  0  0
   24.3660    8.0640   -6.3410 C   0  0  0  0  0  0  0  0  0  0  0  0
   24.7560    9.1280   -5.5370 C   0  0  0  0  0  0  0  0  0  0  0  0
   25.3960   10.2270   -6.0970 C   0  0  0  0  0  0  0  0  0  0  0  0
   25.6470   10.2640   -7.4630 N   0  0  0  0  0  0  0  0  0  0  0  0
   30.3080   12.3590  -13.6310 C   0  0  0  0  0  0  0  0  0  0  0  0
   29.2320   13.2060  -13.3640 N   0  0  0  0  0  0  0  0  0  0  0  0
   28.4390   12.5150  -12.5340 O   0  0  0  0  0  0  0  0  0  0  0  0
   25.8190   11.3810   -5.2210 C   0  0  1  0  0  0  0  0  0  0  0  0
   29.4272    7.0050  -10.7158 H   0  0  0  0  0  0  0  0  0  0  0  0
   26.4455   10.8711  -11.1587 H   0  0  0  0  0  0  0  0  0  0  0  0
   31.8674    9.9715  -13.3641 H   0  0  0  0  0  0  0  0  0  0  0  0
   24.7066    9.3774  -10.3797 H   0  0  0  0  0  0  0  0  0  0  0  0
   24.3092    7.2591   -8.3488 H   0  0  0  0  0  0  0  0  0  0  0  0
   23.8597    7.1945   -5.8965 H   0  0  0  0  0  0  0  0  0  0  0  0
   24.5578    9.1003   -4.4554 H   0  0  0  0  0  0  0  0  0  0  0  0
   31.1803   12.6055  -14.2542 H   0  0  0  0  0  0  0  0  0  0  0  0
   25.7146   11.0962   -4.1637 H   0  0  0  0  0  0  0  0  0  0  0  0
   26.8686   11.6348   -5.4305 H   0  0  0  0  0  0  0  0  0  0  0  0
   25.1821   12.2530   -5.4305 H   0  0  0  0  0  0  0  0  0  0  0  0
  1 11  1  0
  1  2  2  0
  1  6  1  0
  2  8  1  0
  2  3  1  0
  3  4  1  0
  4  5  1  0
  4  7  2  0
  5  6  2  0
  5 12  1  0
  8  9  2  0
  9 10  1  0
 10 19  1  0
 10 11  2  0
 11 21  1  0
 19 20  2  0
 20 21  1  0
 12 13  1  0
 13 14  2  0
 13 18  1  0
 14 15  1  0
 15 16  2  0
 16 17  1  0
 17 18  2  0
 17 22  1  0
  3 23  1  0
  6 24  1  0
  9 25  1  0
 12 26  1  0
 14 27  1  0
 15 28  1  0
 16 29  1  0
 19 30  1  0
 22 31  1  1
 22 32  1  0
 22 33  1  0
M  END
>  <Pose ID>  (52)
153

>  <Score>  (52)
-7.5775532722473145

>  <smiles>  (52)
Cc1cccc(Nc2cc3c(ncc4cnoc43)[nH]c2=O)n1

$$$$

     RDKit          3D

 30 33  0  0  0  0  0  0  0  0999 V2000
   28.4270   10.0810  -11.5730 C   0  0  0  0  0  0  0  0  0  0  0  0
   29.2010    8.9260  -11.6210 C   0  0  0  0  0  0  0  0  0  0  0  0
   28.8210    7.7540  -10.9820 N   0  0  0  0  0  0  0  0  0  0  0  0
   27.6060    7.7150  -10.3070 C   0  0  0  0  0  0  0  0  0  0  0  0
   26.7930    8.8430  -10.2750 C   0  0  0  0  0  0  0  0  0  0  0  0
   27.1850    9.9930  -10.9310 C   0  0  0  0  0  0  0  0  0  0  0  0
   27.2470    6.6750   -9.7360 O   0  0  0  0  0  0  0  0  0  0  0  0
   30.4210    8.9360  -12.2890 N   0  0  0  0  0  0  0  0  0  0  0  0
   30.8630   10.0960  -12.9110 C   0  0  0  0  0  0  0  0  0  0  0  0
   30.0870   11.2490  -12.8640 C   0  0  0  0  0  0  0  0  0  0  0  0
   28.8650   11.2370  -12.1830 C   0  0  0  0  0  0  0  0  0  0  0  0
   25.5780    9.0590   -9.6740 N   0  0  0  0  0  0  0  0  0  0  0  0
   25.3940    8.9250   -8.1970 C   0  0  0  0  0  0  0  0  0  0  0  0
   24.7550    7.7850   -7.7260 C   0  0  0  0  0  0  0  0  0  0  0  0
   24.5540    7.6160   -6.3590 C   0  0  0  0  0  0  0  0  0  0  0  0
   24.9930    8.5880   -5.4690 C   0  0  0  0  0  0  0  0  0  0  0  0
   25.6320    9.7280   -5.9410 C   0  0  0  0  0  0  0  0  0  0  0  0
   25.8330    9.8970   -7.3060 N   0  0  0  0  0  0  0  0  0  0  0  0
   30.3030   12.5280  -13.4090 C   0  0  0  0  0  0  0  0  0  0  0  0
   29.2540   13.3600  -13.0180 N   0  0  0  0  0  0  0  0  0  0  0  0
   28.4790   12.6020  -12.2310 O   0  0  0  0  0  0  0  0  0  0  0  0
   29.4308    6.9243  -11.0075 H   0  0  0  0  0  0  0  0  0  0  0  0
   26.5071   10.8591  -10.9499 H   0  0  0  0  0  0  0  0  0  0  0  0
   31.8269   10.1030  -13.4409 H   0  0  0  0  0  0  0  0  0  0  0  0
   24.7705    9.3208  -10.2573 H   0  0  0  0  0  0  0  0  0  0  0  0
   24.4082    7.0166   -8.4326 H   0  0  0  0  0  0  0  0  0  0  0  0
   24.0482    6.7140   -5.9840 H   0  0  0  0  0  0  0  0  0  0  0  0
   24.8345    8.4550   -4.3886 H   0  0  0  0  0  0  0  0  0  0  0  0
   25.9787   10.4966   -5.2346 H   0  0  0  0  0  0  0  0  0  0  0  0
   31.1561   12.8224  -14.0380 H   0  0  0  0  0  0  0  0  0  0  0  0
  1 11  1  0
  1  2  2  0
  1  6  1  0
  2  8  1  0
  2  3  1  0
  3  4  1  0
  4  5  1  0
  4  7  2  0
  5  6  2  0
  5 12  1  0
  8  9  2  0
  9 10  1  0
 10 19  1  0
 10 11  2  0
 11 21  1  0
 19 20  2  0
 20 21  1  0
 12 13  1  0
 13 14  2  0
 13 18  1  0
 14 15  1  0
 15 16  2  0
 16 17  1  0
 17 18  2  0
  3 22  1  0
  6 23  1  0
  9 24  1  0
 12 25  1  0
 14 26  1  0
 15 27  1  0
 16 28  1  0
 17 29  1  0
 19 30  1  0
M  END
>  <Pose ID>  (53)
151

>  <Score>  (53)
-7.574656009674072

>  <smiles>  (53)
O=c1[nH]c2ncc3cnoc3c2cc1Nc1ccccn1

$$$$

     RDKit          3D

 38 41  0  0  0  0  0  0  0  0999 V2000
   26.9450    8.8840   -9.9750 C   0  0  0  0  0  0  0  0  0  0  0  0
   27.5030    7.6970  -10.4270 C   0  0  0  0  0  0  0  0  0  0  0  0
   28.5910    7.7250  -11.2920 N   0  0  0  0  0  0  0  0  0  0  0  0
   29.1190    8.9410  -11.7060 C   0  0  0  0  0  0  0  0  0  0  0  0
   25.8180    8.6860   -9.0690 O   0  0  0  0  0  0  0  0  0  0  0  0
   28.5600   10.1320  -11.2530 C   0  0  0  0  0  0  0  0  0  0  0  0
   27.4730   10.1030  -10.3890 C   0  0  0  0  0  0  0  0  0  0  0  0
   30.1510    9.2220  -12.5260 N   0  0  0  0  0  0  0  0  0  0  0  0
   30.2760   10.5900  -12.6270 C   0  0  0  0  0  0  0  0  0  0  0  0
   29.2170   11.0050  -11.7900 C   0  0  0  0  0  0  0  0  0  0  0  0
   25.2760    9.6870   -8.2570 C   0  0  0  0  0  0  0  0  0  0  0  0
   25.0500   10.9230   -8.8440 N   0  0  0  0  0  0  0  0  0  0  0  0
   24.5470   11.7680   -7.8740 N   0  0  0  0  0  0  0  0  0  0  0  0
   24.4490   11.0860   -6.7240 C   0  0  0  0  0  0  0  0  0  0  0  0
   24.8670    9.8340   -6.9410 C   0  0  0  0  0  0  0  0  0  0  0  0
   24.2090   13.0060   -8.0650 C   0  0  0  0  0  0  0  0  0  0  0  0
   23.7000   13.7820   -7.0290 C   0  0  0  0  0  0  0  0  0  0  0  0
   24.4040   13.5670   -9.3210 N   0  0  0  0  0  0  0  0  0  0  0  0
   23.3870   15.1170   -7.2510 C   0  0  0  0  0  0  0  0  0  0  0  0
   24.0910   14.9030   -9.5430 C   0  0  0  0  0  0  0  0  0  0  0  0
   23.6200   15.6800   -8.5250 C   0  0  0  0  0  0  0  0  0  0  0  0
   28.9140   12.4670  -11.5700 C   0  0  1  0  0  0  0  0  0  0  0  0
   26.9290    6.3750   -9.9800 C   0  0  1  0  0  0  0  0  0  0  0  0
   29.0058    6.8434  -11.6260 H   0  0  0  0  0  0  0  0  0  0  0  0
   27.0293   11.0441  -10.0318 H   0  0  0  0  0  0  0  0  0  0  0  0
   30.9982   11.1908  -13.1992 H   0  0  0  0  0  0  0  0  0  0  0  0
   24.0869   11.4873   -5.7660 H   0  0  0  0  0  0  0  0  0  0  0  0
   24.8837    9.0361   -6.1840 H   0  0  0  0  0  0  0  0  0  0  0  0
   23.5454   13.3387   -6.0342 H   0  0  0  0  0  0  0  0  0  0  0  0
   22.9618   15.7297   -6.4424 H   0  0  0  0  0  0  0  0  0  0  0  0
   24.2238   15.3364  -10.5453 H   0  0  0  0  0  0  0  0  0  0  0  0
   23.4212   16.7481   -8.6972 H   0  0  0  0  0  0  0  0  0  0  0  0
   28.8711   12.6742  -10.4905 H   0  0  0  0  0  0  0  0  0  0  0  0
   29.7045   13.0785  -12.0296 H   0  0  0  0  0  0  0  0  0  0  0  0
   27.9456   12.7140  -12.0296 H   0  0  0  0  0  0  0  0  0  0  0  0
   26.9119    6.3356   -8.8808 H   0  0  0  0  0  0  0  0  0  0  0  0
   25.9045    6.2706  -10.3667 H   0  0  0  0  0  0  0  0  0  0  0  0
   27.5522    5.5552  -10.3667 H   0  0  0  0  0  0  0  0  0  0  0  0
  1  2  2  0
  1  7  1  0
  1  5  1  0
  2  3  1  0
  2 23  1  0
  3  4  1  0
  4  8  2  0
  4  6  1  0
  6 10  1  0
  6  7  2  0
  8  9  1  0
  9 10  2  0
 10 22  1  0
  5 11  1  0
 11 12  2  0
 11 15  1  0
 12 13  1  0
 13 16  1  0
 13 14  1  0
 14 15  2  0
 16 18  1  0
 16 17  2  0
 17 19  1  0
 18 20  2  0
 19 21  2  0
 20 21  1  0
  3 24  1  0
  7 25  1  0
  9 26  1  0
 14 27  1  0
 15 28  1  0
 17 29  1  0
 19 30  1  0
 20 31  1  0
 21 32  1  0
 22 33  1  1
 22 34  1  0
 22 35  1  0
 23 36  1  1
 23 37  1  0
 23 38  1  0
M  END
>  <Pose ID>  (54)
395

>  <Score>  (54)
-7.551753520965576

>  <smiles>  (54)
Cc1cnc2[nH]c(C)c(Oc3ccn(-c4ccccn4)n3)cc1-2

$$$$

     RDKit          3D

 38 41  0  0  0  0  0  0  0  0999 V2000
   28.0400    7.9040  -10.3480 C   0  0  0  0  0  0  0  0  0  0  0  0
   29.0350    7.1550  -10.9640 C   0  0  0  0  0  0  0  0  0  0  0  0
   29.9210    7.7650  -11.8420 N   0  0  0  0  0  0  0  0  0  0  0  0
   29.8150    9.1270  -12.1060 C   0  0  0  0  0  0  0  0  0  0  0  0
   27.1970    7.1170   -9.4490 O   0  0  0  0  0  0  0  0  0  0  0  0
   28.8180    9.8760  -11.4880 C   0  0  0  0  0  0  0  0  0  0  0  0
   27.9340    9.2630  -10.6100 C   0  0  0  0  0  0  0  0  0  0  0  0
   30.5420    9.9310  -12.9040 N   0  0  0  0  0  0  0  0  0  0  0  0
   30.1600   11.0250  -12.8550 C   0  0  0  0  0  0  0  0  0  0  0  0
   29.0460   11.0380  -12.0240 C   0  0  0  0  0  0  0  0  0  0  0  0
   26.3310    7.6710   -8.5030 C   0  0  0  0  0  0  0  0  0  0  0  0
   25.5300    8.7230   -8.9170 N   0  0  0  0  0  0  0  0  0  0  0  0
   24.7780    9.1400   -7.8340 N   0  0  0  0  0  0  0  0  0  0  0  0
   25.0880    8.3690   -6.7820 C   0  0  0  0  0  0  0  0  0  0  0  0
   26.0040    7.4750   -7.1720 C   0  0  0  0  0  0  0  0  0  0  0  0
   23.8430   10.2290   -7.9570 C   0  0  1  0  0  0  0  0  0  0  0  0
   30.5660   12.1900  -13.4910 C   0  0  0  0  0  0  0  0  0  0  0  0
   29.8600   13.3720  -13.2970 C   0  0  0  0  0  0  0  0  0  0  0  0
   28.7470   13.3870  -12.4640 C   0  0  0  0  0  0  0  0  0  0  0  0
   28.3400   12.2200  -11.8290 C   0  0  0  0  0  0  0  0  0  0  0  0
   24.4160   11.6890   -8.3850 C   0  0  1  0  0  0  0  0  0  0  0  0
   25.9220   11.6700   -8.3640 C   0  0  1  0  0  0  0  0  0  0  0  0
   29.1209    6.0783  -10.7560 H   0  0  0  0  0  0  0  0  0  0  0  0
   30.6577    7.2085  -12.2985 H   0  0  0  0  0  0  0  0  0  0  0  0
   27.1474    9.8561  -10.1206 H   0  0  0  0  0  0  0  0  0  0  0  0
   24.6623    8.4563   -5.7715 H   0  0  0  0  0  0  0  0  0  0  0  0
   26.4357    6.6954   -6.5271 H   0  0  0  0  0  0  0  0  0  0  0  0
   23.0990    9.9363   -8.7126 H   0  0  0  0  0  0  0  0  0  0  0  0
   23.4593   10.3753   -6.9365 H   0  0  0  0  0  0  0  0  0  0  0  0
   31.4473   12.1781  -14.1492 H   0  0  0  0  0  0  0  0  0  0  0  0
   30.1818   14.2946  -13.8022 H   0  0  0  0  0  0  0  0  0  0  0  0
   28.1890   14.3220  -12.3077 H   0  0  0  0  0  0  0  0  0  0  0  0
   27.4583   12.2312  -11.1713 H   0  0  0  0  0  0  0  0  0  0  0  0
   24.0676   11.9356   -9.3988 H   0  0  0  0  0  0  0  0  0  0  0  0
   24.0515   12.4457   -7.6747 H   0  0  0  0  0  0  0  0  0  0  0  0
   26.2741   11.6656   -7.3219 H   0  0  0  0  0  0  0  0  0  0  0  0
   26.2845   10.7672   -8.8774 H   0  0  0  0  0  0  0  0  0  0  0  0
   26.3072   12.5634   -8.8774 H   0  0  0  0  0  0  0  0  0  0  0  0
  1  2  2  0
  1  7  1  0
  1  5  1  0
  2  3  1  0
  3  4  1  0
  4  8  2  0
  4  6  1  0
  6 10  1  0
  6  7  2  0
  8  9  1  0
  9 17  1  0
  9 10  2  0
 10 20  1  0
 17 18  2  0
 18 19  1  0
 19 20  2  0
  5 11  1  0
 11 12  2  0
 11 15  1  0
 12 13  1  0
 13 16  1  0
 13 14  1  0
 14 15  2  0
 16 21  1  0
 21 22  1  0
  2 23  1  0
  3 24  1  0
  7 25  1  0
 14 26  1  0
 15 27  1  0
 16 28  1  6
 16 29  1  0
 17 30  1  0
 18 31  1  0
 19 32  1  0
 20 33  1  0
 21 34  1  6
 21 35  1  0
 22 36  1  1
 22 37  1  0
 22 38  1  0
M  END
>  <Pose ID>  (55)
531

>  <Score>  (55)
-7.545212268829346

>  <smiles>  (55)
CCCn1ccc(Oc2c[nH]c3nc4ccccc4c-3c2)n1

$$$$

     RDKit          3D

 35 38  0  0  0  0  0  0  0  0999 V2000
   28.0360    7.8810  -10.3110 C   0  0  0  0  0  0  0  0  0  0  0  0
   29.0320    7.1460  -10.9390 C   0  0  0  0  0  0  0  0  0  0  0  0
   29.8980    7.7660  -11.8330 N   0  0  0  0  0  0  0  0  0  0  0  0
   29.7670    9.1240  -12.0980 C   0  0  0  0  0  0  0  0  0  0  0  0
   27.2180    7.0870   -9.3980 O   0  0  0  0  0  0  0  0  0  0  0  0
   28.7690    9.8610  -11.4700 C   0  0  0  0  0  0  0  0  0  0  0  0
   27.9060    9.2390  -10.5750 C   0  0  0  0  0  0  0  0  0  0  0  0
   30.4700    9.9360  -12.9100 N   0  0  0  0  0  0  0  0  0  0  0  0
   30.0080   11.1030  -12.8470 C   0  0  0  0  0  0  0  0  0  0  0  0
   28.9320   11.0970  -11.9680 C   0  0  0  0  0  0  0  0  0  0  0  0
   26.3580    7.6310   -8.4390 C   0  0  0  0  0  0  0  0  0  0  0  0
   25.5360    8.6690   -8.8470 N   0  0  0  0  0  0  0  0  0  0  0  0
   24.7940    9.0780   -7.7530 N   0  0  0  0  0  0  0  0  0  0  0  0
   25.1310    8.3150   -6.7030 C   0  0  0  0  0  0  0  0  0  0  0  0
   26.0530    7.4340   -7.1040 C   0  0  0  0  0  0  0  0  0  0  0  0
   23.8420   10.1540   -7.8670 C   0  0  1  0  0  0  0  0  0  0  0  0
   30.3780   12.2790  -13.4880 C   0  0  0  0  0  0  0  0  0  0  0  0
   29.6720   13.4520  -13.2490 C   0  0  0  0  0  0  0  0  0  0  0  0
   28.5960   13.4480  -12.3680 C   0  0  0  0  0  0  0  0  0  0  0  0
   28.2260   12.2710  -11.7280 C   0  0  0  0  0  0  0  0  0  0  0  0
   27.8300   14.7210  -12.1070 C   0  0  1  0  0  0  0  0  0  0  0  0
   29.1364    6.0713  -10.7291 H   0  0  0  0  0  0  0  0  0  0  0  0
   30.6362    7.2191  -12.2986 H   0  0  0  0  0  0  0  0  0  0  0  0
   27.1191    9.8228  -10.0751 H   0  0  0  0  0  0  0  0  0  0  0  0
   24.7195    8.3995   -5.6864 H   0  0  0  0  0  0  0  0  0  0  0  0
   26.5049    6.6622   -6.4636 H   0  0  0  0  0  0  0  0  0  0  0  0
   23.5454   10.4892   -6.8622 H   0  0  0  0  0  0  0  0  0  0  0  0
   24.2996   10.9922   -8.4129 H   0  0  0  0  0  0  0  0  0  0  0  0
   22.9543    9.8019   -8.4129 H   0  0  0  0  0  0  0  0  0  0  0  0
   31.2295   12.2815  -14.1844 H   0  0  0  0  0  0  0  0  0  0  0  0
   29.9642   14.3832  -13.7565 H   0  0  0  0  0  0  0  0  0  0  0  0
   27.3746   12.2680  -11.0315 H   0  0  0  0  0  0  0  0  0  0  0  0
   27.7363   14.8767  -11.0221 H   0  0  0  0  0  0  0  0  0  0  0  0
   28.3671   15.5704  -12.5543 H   0  0  0  0  0  0  0  0  0  0  0  0
   26.8280   14.6442  -12.5543 H   0  0  0  0  0  0  0  0  0  0  0  0
  1  2  2  0
  1  7  1  0
  1  5  1  0
  2  3  1  0
  3  4  1  0
  4  8  2  0
  4  6  1  0
  6 10  1  0
  6  7  2  0
  8  9  1  0
  9 17  1  0
  9 10  2  0
 10 20  1  0
 17 18  2  0
 18 19  1  0
 19 21  1  0
 19 20  2  0
  5 11  1  0
 11 12  2  0
 11 15  1  0
 12 13  1  0
 13 16  1  0
 13 14  1  0
 14 15  2  0
  2 22  1  0
  3 23  1  0
  7 24  1  0
 14 25  1  0
 15 26  1  0
 16 27  1  1
 16 28  1  0
 16 29  1  0
 17 30  1  0
 18 31  1  0
 20 32  1  0
 21 33  1  1
 21 34  1  0
 21 35  1  0
M  END
>  <Pose ID>  (56)
497

>  <Score>  (56)
-7.534624099731445

>  <smiles>  (56)
Cc1ccc2nc3[nH]cc(Oc4ccn(C)n4)cc-3c2c1

$$$$

     RDKit          3D

 38 40  0  0  0  0  0  0  0  0999 V2000
   28.4150    9.9610  -11.5580 C   0  0  0  0  0  0  0  0  0  0  0  0
   29.1420    8.7760  -11.5360 C   0  0  0  0  0  0  0  0  0  0  0  0
   28.7140    7.6600  -10.8300 N   0  0  0  0  0  0  0  0  0  0  0  0
   27.4970    7.7090  -10.1590 C   0  0  0  0  0  0  0  0  0  0  0  0
   26.7290    8.8670  -10.1980 C   0  0  0  0  0  0  0  0  0  0  0  0
   27.1690    9.9610  -10.9170 C   0  0  0  0  0  0  0  0  0  0  0  0
   27.0960    6.7200   -9.5300 O   0  0  0  0  0  0  0  0  0  0  0  0
   30.3630    8.6980  -12.1970 N   0  0  0  0  0  0  0  0  0  0  0  0
   30.8520    9.8000  -12.8850 C   0  0  0  0  0  0  0  0  0  0  0  0
   30.1230   10.9830  -12.9080 C   0  0  0  0  0  0  0  0  0  0  0  0
   28.9020   11.0600  -12.2340 C   0  0  0  0  0  0  0  0  0  0  0  0
   25.5240    9.1670   -9.6160 N   0  0  0  0  0  0  0  0  0  0  0  0
   25.3320    9.1280   -8.1350 C   0  0  0  0  0  0  0  0  0  0  0  0
   24.6460    8.0440   -7.5990 C   0  0  0  0  0  0  0  0  0  0  0  0
   24.4360    7.9650   -6.2280 C   0  0  0  0  0  0  0  0  0  0  0  0
   24.9110    8.9690   -5.3920 C   0  0  0  0  0  0  0  0  0  0  0  0
   25.5960   10.0530   -5.9280 C   0  0  0  0  0  0  0  0  0  0  0  0
   25.8080   10.1320   -7.2990 N   0  0  0  0  0  0  0  0  0  0  0  0
   28.1840   12.2320  -12.2430 N   0  0  0  0  0  0  0  0  0  0  0  0
   28.4150   13.3630  -12.9080 C   0  0  0  0  0  0  0  0  0  0  0  0
   29.3150   13.3980  -13.7600 O   0  0  0  0  0  0  0  0  0  0  0  0
   27.4570   14.4720  -12.7170 C   0  0  1  0  0  0  0  0  0  0  0  0
   26.8120   14.4540  -11.2920 C   0  0  1  0  0  0  0  0  0  0  0  0
   29.2904    6.8068  -10.8035 H   0  0  0  0  0  0  0  0  0  0  0  0
   26.5274   10.8517  -10.9880 H   0  0  0  0  0  0  0  0  0  0  0  0
   31.8157    9.7370  -13.4116 H   0  0  0  0  0  0  0  0  0  0  0  0
   30.5066   11.8565  -13.4556 H   0  0  0  0  0  0  0  0  0  0  0  0
   24.7288    9.4266  -10.2170 H   0  0  0  0  0  0  0  0  0  0  0  0
   24.2697    7.2494   -8.2601 H   0  0  0  0  0  0  0  0  0  0  0  0
   23.8935    7.1074   -5.8036 H   0  0  0  0  0  0  0  0  0  0  0  0
   24.7447    8.9055   -4.3065 H   0  0  0  0  0  0  0  0  0  0  0  0
   25.9704   10.8485   -5.2669 H   0  0  0  0  0  0  0  0  0  0  0  0
   27.3434   12.2365  -11.6478 H   0  0  0  0  0  0  0  0  0  0  0  0
   27.9870   15.4261  -12.8544 H   0  0  0  0  0  0  0  0  0  0  0  0
   26.6503   14.3535  -13.4553 H   0  0  0  0  0  0  0  0  0  0  0  0
   27.6052   14.4761  -10.5302 H   0  0  0  0  0  0  0  0  0  0  0  0
   26.1636   15.3344  -11.1719 H   0  0  0  0  0  0  0  0  0  0  0  0
   26.2137   13.5388  -11.1719 H   0  0  0  0  0  0  0  0  0  0  0  0
  1 11  1  0
  1  2  2  0
  1  6  1  0
  2  8  1  0
  2  3  1  0
  3  4  1  0
  4  5  1  0
  4  7  2  0
  5  6  2  0
  5 12  1  0
  8  9  2  0
  9 10  1  0
 10 11  2  0
 11 19  1  0
 19 20  1  0
 20 21  2  0
 20 22  1  0
 22 23  1  0
 12 13  1  0
 13 14  2  0
 13 18  1  0
 14 15  1  0
 15 16  2  0
 16 17  1  0
 17 18  2  0
  3 24  1  0
  6 25  1  0
  9 26  1  0
 10 27  1  0
 12 28  1  0
 14 29  1  0
 15 30  1  0
 16 31  1  0
 17 32  1  0
 19 33  1  0
 22 34  1  6
 22 35  1  0
 23 36  1  1
 23 37  1  0
 23 38  1  0
M  END
>  <Pose ID>  (57)
180

>  <Score>  (57)
-7.531678676605225

>  <smiles>  (57)
CCC(=O)Nc1ccnc2[nH]c(=O)c(Nc3ccccn3)cc12

$$$$

     RDKit          3D

 37 40  0  0  0  0  0  0  0  0999 V2000
   27.9780    7.8720  -10.2770 C   0  0  0  0  0  0  0  0  0  0  0  0
   28.9620    7.1420  -10.9300 C   0  0  0  0  0  0  0  0  0  0  0  0
   29.8180    7.7730  -11.8270 N   0  0  0  0  0  0  0  0  0  0  0  0
   29.6880    9.1350  -12.0700 C   0  0  0  0  0  0  0  0  0  0  0  0
   27.1700    7.0660   -9.3640 O   0  0  0  0  0  0  0  0  0  0  0  0
   28.7010    9.8650  -11.4150 C   0  0  0  0  0  0  0  0  0  0  0  0
   27.8480    9.2340  -10.5180 C   0  0  0  0  0  0  0  0  0  0  0  0
   30.3820    9.9570  -12.8790 N   0  0  0  0  0  0  0  0  0  0  0  0
   29.9210   11.1280  -12.7910 C   0  0  0  0  0  0  0  0  0  0  0  0
   28.8540   11.1220  -11.9010 C   0  0  0  0  0  0  0  0  0  0  0  0
   26.3260    7.5990   -8.3850 C   0  0  0  0  0  0  0  0  0  0  0  0
   25.5020    8.6460   -8.7650 N   0  0  0  0  0  0  0  0  0  0  0  0
   24.7770    9.0420   -7.6540 N   0  0  0  0  0  0  0  0  0  0  0  0
   25.1260    8.2620   -6.6210 C   0  0  0  0  0  0  0  0  0  0  0  0
   26.0400    7.3830   -7.0490 C   0  0  0  0  0  0  0  0  0  0  0  0
   23.8280   10.1220   -7.7390 C   0  0  1  0  0  0  0  0  0  0  0  0
   30.2950   12.3100  -13.4200 C   0  0  0  0  0  0  0  0  0  0  0  0
   29.5990   13.4840  -13.1610 C   0  0  0  0  0  0  0  0  0  0  0  0
   28.5320   13.4780  -12.2730 C   0  0  0  0  0  0  0  0  0  0  0  0
   28.1590   12.2970  -11.6420 N   0  0  0  0  0  0  0  0  0  0  0  0
   27.7770   14.7540  -11.9920 C   0  0  1  0  0  0  0  0  0  0  0  0
   28.2380   15.3850  -10.6810 C   0  0  1  0  0  0  0  0  0  0  0  0
   29.0649    6.0638  -10.7380 H   0  0  0  0  0  0  0  0  0  0  0  0
   30.5479    7.2308  -12.3109 H   0  0  0  0  0  0  0  0  0  0  0  0
   27.0699    9.8127   -9.9988 H   0  0  0  0  0  0  0  0  0  0  0  0
   24.7293    8.3324   -5.5974 H   0  0  0  0  0  0  0  0  0  0  0  0
   26.4985    6.6002   -6.4269 H   0  0  0  0  0  0  0  0  0  0  0  0
   23.5460   10.4429   -6.7254 H   0  0  0  0  0  0  0  0  0  0  0  0
   24.2813   10.9668   -8.2783 H   0  0  0  0  0  0  0  0  0  0  0  0
   22.9319    9.7811   -8.2783 H   0  0  0  0  0  0  0  0  0  0  0  0
   31.1415   12.3156  -14.1224 H   0  0  0  0  0  0  0  0  0  0  0  0
   29.8936   14.4190  -13.6599 H   0  0  0  0  0  0  0  0  0  0  0  0
   27.9519   15.4639  -12.8139 H   0  0  0  0  0  0  0  0  0  0  0  0
   26.7061   14.5165  -11.9091 H   0  0  0  0  0  0  0  0  0  0  0  0
   27.8232   14.8173   -9.8350 H   0  0  0  0  0  0  0  0  0  0  0  0
   29.3367   15.3664  -10.6315 H   0  0  0  0  0  0  0  0  0  0  0  0
   27.8863   16.4261  -10.6315 H   0  0  0  0  0  0  0  0  0  0  0  0
  1  2  2  0
  1  7  1  0
  1  5  1  0
  2  3  1  0
  3  4  1  0
  4  8  2  0
  4  6  1  0
  6 10  1  0
  6  7  2  0
  8  9  1  0
  9 17  1  0
  9 10  2  0
 10 20  1  0
 17 18  2  0
 18 19  1  0
 19 21  1  0
 19 20  2  0
 21 22  1  0
  5 11  1  0
 11 12  2  0
 11 15  1  0
 12 13  1  0
 13 16  1  0
 13 14  1  0
 14 15  2  0
  2 23  1  0
  3 24  1  0
  7 25  1  0
 14 26  1  0
 15 27  1  0
 16 28  1  1
 16 29  1  0
 16 30  1  0
 17 31  1  0
 18 32  1  0
 21 33  1  6
 21 34  1  0
 22 35  1  1
 22 36  1  0
 22 37  1  0
M  END
>  <Pose ID>  (58)
516

>  <Score>  (58)
-7.528149127960205

>  <smiles>  (58)
CCc1ccc2nc3[nH]cc(Oc4ccn(C)n4)cc-3c2n1

$$$$

     RDKit          3D

 37 40  0  0  0  0  0  0  0  0999 V2000
   27.0660    8.7060  -10.0980 C   0  0  0  0  0  0  0  0  0  0  0  0
   27.8430    7.6060  -10.4300 C   0  0  0  0  0  0  0  0  0  0  0  0
   28.9550    7.7590  -11.2500 N   0  0  0  0  0  0  0  0  0  0  0  0
   29.2890    9.0170  -11.7370 C   0  0  0  0  0  0  0  0  0  0  0  0
   25.9410    8.3790   -9.2230 O   0  0  0  0  0  0  0  0  0  0  0  0
   28.5100   10.1200  -11.4060 C   0  0  0  0  0  0  0  0  0  0  0  0
   27.4000    9.9640  -10.5850 C   0  0  0  0  0  0  0  0  0  0  0  0
   30.2990    9.4140  -12.5350 N   0  0  0  0  0  0  0  0  0  0  0  0
   30.1720   10.6580  -12.6910 C   0  0  0  0  0  0  0  0  0  0  0  0
   29.0850   11.2470  -12.0570 C   0  0  0  0  0  0  0  0  0  0  0  0
   25.1960    9.3260   -8.5170 C   0  0  0  0  0  0  0  0  0  0  0  0
   24.7940   10.4580   -9.2090 N   0  0  0  0  0  0  0  0  0  0  0  0
   24.1000   11.2710   -8.3330 N   0  0  0  0  0  0  0  0  0  0  0  0
   24.0590   10.6640   -7.1370 C   0  0  0  0  0  0  0  0  0  0  0  0
   24.6950    9.4930   -7.2360 C   0  0  0  0  0  0  0  0  0  0  0  0
   23.5550   12.5320   -8.7650 C   0  0  1  0  0  0  0  0  0  0  0  0
   31.0300   11.4330  -13.4640 C   0  0  0  0  0  0  0  0  0  0  0  0
   30.8010   12.7960  -13.6020 C   0  0  0  0  0  0  0  0  0  0  0  0
   29.7110   13.3850  -12.9680 N   0  0  0  0  0  0  0  0  0  0  0  0
   28.8560   12.6110  -12.1970 C   0  0  0  0  0  0  0  0  0  0  0  0
   24.8490    8.4970   -6.1130 C   0  0  1  0  0  0  0  0  0  0  0  0
   24.4480    7.0720   -6.5100 C   0  0  1  0  0  0  0  0  0  0  0  0
   27.5787    6.6106  -10.0436 H   0  0  0  0  0  0  0  0  0  0  0  0
   29.5306    6.9411  -11.4963 H   0  0  0  0  0  0  0  0  0  0  0  0
   26.7851   10.8369  -10.3203 H   0  0  0  0  0  0  0  0  0  0  0  0
   23.5827   11.0627   -6.2292 H   0  0  0  0  0  0  0  0  0  0  0  0
   23.2928   13.1387   -7.8857 H   0  0  0  0  0  0  0  0  0  0  0  0
   24.3024   13.0666   -9.3697 H   0  0  0  0  0  0  0  0  0  0  0  0
   22.6535   12.3540   -9.3697 H   0  0  0  0  0  0  0  0  0  0  0  0
   31.8902   10.9664  -13.9662 H   0  0  0  0  0  0  0  0  0  0  0  0
   31.4806   13.4094  -14.2119 H   0  0  0  0  0  0  0  0  0  0  0  0
   27.9952   13.0775  -11.6955 H   0  0  0  0  0  0  0  0  0  0  0  0
   25.9022    8.4881   -5.7956 H   0  0  0  0  0  0  0  0  0  0  0  0
   24.1756    8.8120   -5.3023 H   0  0  0  0  0  0  0  0  0  0  0  0
   24.2793    6.4725   -5.6033 H   0  0  0  0  0  0  0  0  0  0  0  0
   23.5239    7.1037   -7.1058 H   0  0  0  0  0  0  0  0  0  0  0  0
   25.2530    6.6171   -7.1058 H   0  0  0  0  0  0  0  0  0  0  0  0
  1  7  1  0
  1  2  2  0
  1  5  1  0
  2  3  1  0
  3  4  1  0
  4  8  2  0
  4  6  1  0
  6 10  1  0
  6  7  2  0
  8  9  1  0
  9 17  1  0
  9 10  2  0
 10 20  1  0
 17 18  2  0
 18 19  1  0
 19 20  2  0
  5 11  1  0
 11 12  2  0
 11 15  1  0
 12 13  1  0
 13 16  1  0
 13 14  1  0
 14 15  2  0
 15 21  1  0
 21 22  1  0
  2 23  1  0
  3 24  1  0
  7 25  1  0
 14 26  1  0
 16 27  1  1
 16 28  1  0
 16 29  1  0
 17 30  1  0
 18 31  1  0
 20 32  1  0
 21 33  1  1
 21 34  1  0
 22 35  1  1
 22 36  1  0
 22 37  1  0
M  END
>  <Pose ID>  (59)
535

>  <Score>  (59)
-7.499490261077881

>  <smiles>  (59)
CCc1cn(C)nc1Oc1c[nH]c2nc3ccncc3c-2c1

$$$$

     RDKit          3D

 25 27  0  0  0  0  0  0  0  0999 V2000
   26.8090    8.9140  -10.4150 C   0  0  0  0  0  0  0  0  0  0  0  0
   27.4490    7.6930  -10.2240 C   0  0  0  0  0  0  0  0  0  0  0  0
   28.6960    7.4660  -10.7970 N   0  0  0  0  0  0  0  0  0  0  0  0
   25.6020    9.4560   -9.9920 N   0  0  0  0  0  0  0  0  0  0  0  0
   29.3010    8.4550  -11.5640 C   0  0  0  0  0  0  0  0  0  0  0  0
   28.6590    9.6740  -11.7570 C   0  0  0  0  0  0  0  0  0  0  0  0
   27.4140    9.9020  -11.1820 C   0  0  0  0  0  0  0  0  0  0  0  0
   30.4790    8.4710  -12.2100 N   0  0  0  0  0  0  0  0  0  0  0  0
   30.6270    9.6880  -12.8350 C   0  0  0  0  0  0  0  0  0  0  0  0
   29.4150   10.3130  -12.4650 C   0  0  0  0  0  0  0  0  0  0  0  0
   25.2640    9.8120   -8.5880 C   0  0  0  0  0  0  0  0  0  0  0  0
   26.3160    9.5600   -7.7140 N   0  0  0  0  0  0  0  0  0  0  0  0
   26.1810    9.8560   -6.3620 C   0  0  0  0  0  0  0  0  0  0  0  0
   24.9960   10.4030   -5.8840 C   0  0  0  0  0  0  0  0  0  0  0  0
   23.9450   10.6540   -6.7590 C   0  0  0  0  0  0  0  0  0  0  0  0
   24.0790   10.3590   -8.1100 N   0  0  0  0  0  0  0  0  0  0  0  0
   26.9692    6.9083   -9.6206 H   0  0  0  0  0  0  0  0  0  0  0  0
   29.1717    6.5639  -10.6528 H   0  0  0  0  0  0  0  0  0  0  0  0
   24.8823    9.6252  -10.7092 H   0  0  0  0  0  0  0  0  0  0  0  0
   26.9070   10.8662  -11.3345 H   0  0  0  0  0  0  0  0  0  0  0  0
   31.4562   10.0677  -13.4501 H   0  0  0  0  0  0  0  0  0  0  0  0
   29.1662   11.3303  -12.8014 H   0  0  0  0  0  0  0  0  0  0  0  0
   27.0128    9.6571   -5.6702 H   0  0  0  0  0  0  0  0  0  0  0  0
   24.8898   10.6371   -4.8145 H   0  0  0  0  0  0  0  0  0  0  0  0
   23.0067   11.0865   -6.3813 H   0  0  0  0  0  0  0  0  0  0  0  0
  1  7  1  0
  1  2  2  0
  1  4  1  0
  2  3  1  0
  3  5  1  0
  5  8  2  0
  5  6  1  0
  6 10  1  0
  6  7  2  0
  8  9  1  0
  9 10  2  0
  4 11  1  0
 11 16  1  0
 11 12  2  0
 12 13  1  0
 13 14  2  0
 14 15  1  0
 15 16  2  0
  2 17  1  0
  3 18  1  0
  4 19  1  0
  7 20  1  0
  9 21  1  0
 10 22  1  0
 13 23  1  0
 14 24  1  0
 15 25  1  0
M  END
>  <Pose ID>  (60)
12

>  <Score>  (60)
-7.490344524383545

>  <smiles>  (60)
c1cnc(Nc2c[nH]c3nccc-3c2)nc1

$$$$

     RDKit          3D

 34 37  0  0  0  0  0  0  0  0999 V2000
   27.1250    8.2120   -9.4540 C   0  0  0  0  0  0  0  0  0  0  0  0
   27.0280    7.0490   -8.6970 N   0  0  0  0  0  0  0  0  0  0  0  0
   26.1170    6.9780   -7.6480 C   0  0  0  0  0  0  0  0  0  0  0  0
   25.3040    8.0690   -7.3570 C   0  0  0  0  0  0  0  0  0  0  0  0
   25.4000    9.2300   -8.1170 N   0  0  0  0  0  0  0  0  0  0  0  0
   26.3120    9.3020   -9.1640 C   0  0  0  0  0  0  0  0  0  0  0  0
   24.3420    8.1720   -6.3590 C   0  0  0  0  0  0  0  0  0  0  0  0
   24.0490    7.1070   -5.5150 C   0  0  0  0  0  0  0  0  0  0  0  0
   23.6480    9.3690   -6.2340 C   0  0  0  0  0  0  0  0  0  0  0  0
   23.0610    7.2360   -4.5500 N   0  0  0  0  0  0  0  0  0  0  0  0
   22.3650    8.4340   -4.4240 C   0  0  0  0  0  0  0  0  0  0  0  0
   24.2940   10.1470   -7.4020 N   0  0  0  0  0  0  0  0  0  0  0  0
   22.6580    9.5000   -5.2660 C   0  0  0  0  0  0  0  0  0  0  0  0
   28.0460    8.2840  -10.5140 C   0  0  0  0  0  0  0  0  0  0  0  0
   29.1020    9.1880  -10.5320 O   0  0  0  0  0  0  0  0  0  0  0  0
   28.0610    7.5240  -11.6490 N   0  0  0  0  0  0  0  0  0  0  0  0
   29.7200    8.9210  -11.7300 C   0  0  0  0  0  0  0  0  0  0  0  0
   29.0920    7.9060  -12.4350 C   0  0  0  0  0  0  0  0  0  0  0  0
   21.2900    8.5750   -3.3750 C   0  0  1  0  0  0  0  0  0  0  0  0
   21.8980    8.8600   -2.0040 C   0  0  1  0  0  0  0  0  0  0  0  0
   22.7320   10.1560   -2.0070 C   0  0  1  0  0  0  0  0  0  0  0  0
   26.0394    6.0590   -7.0484 H   0  0  0  0  0  0  0  0  0  0  0  0
   26.3903   10.2213   -9.7629 H   0  0  0  0  0  0  0  0  0  0  0  0
   24.6014    6.1608   -5.6125 H   0  0  0  0  0  0  0  0  0  0  0  0
   22.1072   10.4470   -5.1669 H   0  0  0  0  0  0  0  0  0  0  0  0
   30.6131    9.4532  -12.0893 H   0  0  0  0  0  0  0  0  0  0  0  0
   29.3715    7.5004  -13.4185 H   0  0  0  0  0  0  0  0  0  0  0  0
   20.6232    9.4047   -3.6524 H   0  0  0  0  0  0  0  0  0  0  0  0
   20.7279    7.6311   -3.3199 H   0  0  0  0  0  0  0  0  0  0  0  0
   21.0864    8.9604   -1.2683 H   0  0  0  0  0  0  0  0  0  0  0  0
   22.5648    8.0244   -1.7449 H   0  0  0  0  0  0  0  0  0  0  0  0
   22.9315   10.4660   -0.9706 H   0  0  0  0  0  0  0  0  0  0  0  0
   23.6851    9.9775   -2.5263 H   0  0  0  0  0  0  0  0  0  0  0  0
   22.1746   10.9495   -2.5263 H   0  0  0  0  0  0  0  0  0  0  0  0
  1 14  1  0
  1  6  2  0
  1  2  1  0
  2  3  2  0
  3  4  1  0
  4  5  1  0
  4  7  2  0
  5  6  1  0
  5 12  1  0
  7  9  1  0
  7  8  1  0
  8 10  2  0
  9 12  2  0
  9 13  1  0
 10 11  1  0
 11 13  2  0
 11 19  1  0
 14 16  2  0
 14 15  1  0
 15 17  1  0
 16 18  1  0
 17 18  2  0
 19 20  1  0
 20 21  1  0
  3 22  1  0
  6 23  1  0
  8 24  1  0
 13 25  1  0
 17 26  1  0
 18 27  1  0
 19 28  1  6
 19 29  1  0
 20 30  1  1
 20 31  1  0
 21 32  1  1
 21 33  1  0
 21 34  1  0
M  END
>  <Pose ID>  (61)
74

>  <Score>  (61)
-7.487060546875

>  <smiles>  (61)
CCCc1cc2nn3cc(-c4ncco4)ncc3c2cn1

$$$$

     RDKit          3D

 35 38  0  0  0  0  0  0  0  0999 V2000
   28.0190    7.8950  -10.3460 C   0  0  0  0  0  0  0  0  0  0  0  0
   28.9870    7.1500  -11.0060 C   0  0  0  0  0  0  0  0  0  0  0  0
   29.8610    7.7700  -11.8910 N   0  0  0  0  0  0  0  0  0  0  0  0
   29.7680    9.1380  -12.1160 C   0  0  0  0  0  0  0  0  0  0  0  0
   27.1870    7.1000   -9.4480 O   0  0  0  0  0  0  0  0  0  0  0  0
   28.7980    9.8860  -11.4560 C   0  0  0  0  0  0  0  0  0  0  0  0
   27.9260    9.2650  -10.5700 C   0  0  0  0  0  0  0  0  0  0  0  0
   30.4860    9.9530  -12.9120 N   0  0  0  0  0  0  0  0  0  0  0  0
   30.0600   11.1300  -12.8100 C   0  0  0  0  0  0  0  0  0  0  0  0
   28.9930   11.1310  -11.9200 C   0  0  0  0  0  0  0  0  0  0  0  0
   26.3530    7.6410   -8.4640 C   0  0  0  0  0  0  0  0  0  0  0  0
   25.5580    8.7140   -8.8330 N   0  0  0  0  0  0  0  0  0  0  0  0
   24.8400    9.1130   -7.7200 N   0  0  0  0  0  0  0  0  0  0  0  0
   25.1650    8.3100   -6.6960 C   0  0  0  0  0  0  0  0  0  0  0  0
   26.0570    7.4150   -7.1320 C   0  0  0  0  0  0  0  0  0  0  0  0
   23.9200   10.2190   -7.7920 C   0  0  1  0  0  0  0  0  0  0  0  0
   30.4580   12.3140  -13.4220 C   0  0  0  0  0  0  0  0  0  0  0  0
   29.7890   13.5000  -13.1410 C   0  0  0  0  0  0  0  0  0  0  0  0
   28.7230   13.5010  -12.2490 C   0  0  0  0  0  0  0  0  0  0  0  0
   28.3250   12.3170  -11.6390 C   0  0  0  0  0  0  0  0  0  0  0  0
   27.1670   12.3200  -10.6710 C   0  0  1  0  0  0  0  0  0  0  0  0
   29.0623    6.0671  -10.8281 H   0  0  0  0  0  0  0  0  0  0  0  0
   30.5778    7.2153  -12.3802 H   0  0  0  0  0  0  0  0  0  0  0  0
   27.1616    9.8570  -10.0454 H   0  0  0  0  0  0  0  0  0  0  0  0
   24.7660    8.3765   -5.6731 H   0  0  0  0  0  0  0  0  0  0  0  0
   26.4935    6.6129   -6.5187 H   0  0  0  0  0  0  0  0  0  0  0  0
   23.6527   10.5404   -6.7745 H   0  0  0  0  0  0  0  0  0  0  0  0
   24.3929   11.0550   -8.3282 H   0  0  0  0  0  0  0  0  0  0  0  0
   23.0119    9.9062   -8.3282 H   0  0  0  0  0  0  0  0  0  0  0  0
   31.3016   12.3120  -14.1279 H   0  0  0  0  0  0  0  0  0  0  0  0
   30.1031   14.4369  -13.6243 H   0  0  0  0  0  0  0  0  0  0  0  0
   28.1940   14.4392  -12.0257 H   0  0  0  0  0  0  0  0  0  0  0  0
   27.5508   12.3190   -9.6401 H   0  0  0  0  0  0  0  0  0  0  0  0
   26.5554   13.2197  -10.8337 H   0  0  0  0  0  0  0  0  0  0  0  0
   26.5508   11.4234  -10.8337 H   0  0  0  0  0  0  0  0  0  0  0  0
  1  2  2  0
  1  7  1  0
  1  5  1  0
  2  3  1  0
  3  4  1  0
  4  8  2  0
  4  6  1  0
  6 10  1  0
  6  7  2  0
  8  9  1  0
  9 17  1  0
  9 10  2  0
 10 20  1  0
 17 18  2  0
 18 19  1  0
 19 20  2  0
 20 21  1  0
  5 11  1  0
 11 12  2  0
 11 15  1  0
 12 13  1  0
 13 16  1  0
 13 14  1  0
 14 15  2  0
  2 22  1  0
  3 23  1  0
  7 24  1  0
 14 25  1  0
 15 26  1  0
 16 27  1  1
 16 28  1  0
 16 29  1  0
 17 30  1  0
 18 31  1  0
 19 32  1  0
 21 33  1  1
 21 34  1  0
 21 35  1  0
M  END
>  <Pose ID>  (62)
499

>  <Score>  (62)
-7.48493766784668

>  <smiles>  (62)
Cc1cccc2nc3[nH]cc(Oc4ccn(C)n4)cc-3c12

$$$$

     RDKit          3D

 30 33  0  0  0  0  0  0  0  0999 V2000
   28.4320   10.0120  -11.5980 C   0  0  0  0  0  0  0  0  0  0  0  0
   29.1820    8.8400  -11.5820 C   0  0  0  0  0  0  0  0  0  0  0  0
   28.7740    7.7120  -10.8840 N   0  0  0  0  0  0  0  0  0  0  0  0
   27.5560    7.7330  -10.2150 C   0  0  0  0  0  0  0  0  0  0  0  0
   26.7660    8.8770  -10.2470 C   0  0  0  0  0  0  0  0  0  0  0  0
   27.1860    9.9830  -10.9600 C   0  0  0  0  0  0  0  0  0  0  0  0
   27.1720    6.7320   -9.5930 O   0  0  0  0  0  0  0  0  0  0  0  0
   30.4040    8.7890  -12.2420 N   0  0  0  0  0  0  0  0  0  0  0  0
   30.8730    9.9060  -12.9220 C   0  0  0  0  0  0  0  0  0  0  0  0
   30.1220   11.0760  -12.9390 C   0  0  0  0  0  0  0  0  0  0  0  0
   28.8980   11.1250  -12.2650 C   0  0  0  0  0  0  0  0  0  0  0  0
   25.5540    9.1490   -9.6650 N   0  0  0  0  0  0  0  0  0  0  0  0
   25.3610    9.0970   -8.1840 C   0  0  0  0  0  0  0  0  0  0  0  0
   24.6960    7.9970   -7.6560 C   0  0  0  0  0  0  0  0  0  0  0  0
   24.4840    7.9040   -6.2860 C   0  0  0  0  0  0  0  0  0  0  0  0
   24.9410    8.9110   -5.4430 C   0  0  0  0  0  0  0  0  0  0  0  0
   25.6050   10.0110   -5.9700 C   0  0  0  0  0  0  0  0  0  0  0  0
   25.8170   10.1040   -7.3410 N   0  0  0  0  0  0  0  0  0  0  0  0
   28.3570   12.3720  -12.4130 N   0  0  0  0  0  0  0  0  0  0  0  0
   29.0120   13.3090  -13.1220 C   0  0  0  0  0  0  0  0  0  0  0  0
   30.2010   12.6480  -13.5470 O   0  0  0  0  0  0  0  0  0  0  0  0
   29.3665    6.8698  -10.8620 H   0  0  0  0  0  0  0  0  0  0  0  0
   26.5266   10.8608  -11.0281 H   0  0  0  0  0  0  0  0  0  0  0  0
   31.8387    9.8648  -13.4471 H   0  0  0  0  0  0  0  0  0  0  0  0
   24.7545    9.3960  -10.2656 H   0  0  0  0  0  0  0  0  0  0  0  0
   24.3372    7.1994   -8.3231 H   0  0  0  0  0  0  0  0  0  0  0  0
   23.9551    7.0345   -5.8686 H   0  0  0  0  0  0  0  0  0  0  0  0
   24.7765    8.8363   -4.3579 H   0  0  0  0  0  0  0  0  0  0  0  0
   25.9632   10.8088   -5.3027 H   0  0  0  0  0  0  0  0  0  0  0  0
   28.7020   14.3445  -13.3262 H   0  0  0  0  0  0  0  0  0  0  0  0
  1 11  1  0
  1  2  2  0
  1  6  1  0
  2  8  1  0
  2  3  1  0
  3  4  1  0
  4  5  1  0
  4  7  2  0
  5  6  2  0
  5 12  1  0
  8  9  2  0
  9 10  1  0
 10 21  1  0
 10 11  2  0
 11 19  1  0
 19 20  2  0
 20 21  1  0
 12 13  1  0
 13 14  2  0
 13 18  1  0
 14 15  1  0
 15 16  2  0
 16 17  1  0
 17 18  2  0
  3 22  1  0
  6 23  1  0
  9 24  1  0
 12 25  1  0
 14 26  1  0
 15 27  1  0
 16 28  1  0
 17 29  1  0
 20 30  1  0
M  END
>  <Pose ID>  (63)
167

>  <Score>  (63)
-7.469048023223877

>  <smiles>  (63)
O=c1[nH]c2ncc3ocnc3c2cc1Nc1ccccn1

$$$$

     RDKit          3D

 34 37  0  0  0  0  0  0  0  0999 V2000
   27.9780    7.8720  -10.2770 C   0  0  0  0  0  0  0  0  0  0  0  0
   28.9620    7.1420  -10.9300 C   0  0  0  0  0  0  0  0  0  0  0  0
   29.8180    7.7730  -11.8270 N   0  0  0  0  0  0  0  0  0  0  0  0
   29.6880    9.1350  -12.0700 C   0  0  0  0  0  0  0  0  0  0  0  0
   27.1700    7.0660   -9.3640 O   0  0  0  0  0  0  0  0  0  0  0  0
   28.7010    9.8650  -11.4150 C   0  0  0  0  0  0  0  0  0  0  0  0
   27.8480    9.2340  -10.5180 C   0  0  0  0  0  0  0  0  0  0  0  0
   30.3820    9.9570  -12.8790 N   0  0  0  0  0  0  0  0  0  0  0  0
   29.9210   11.1280  -12.7910 C   0  0  0  0  0  0  0  0  0  0  0  0
   28.8540   11.1220  -11.9010 C   0  0  0  0  0  0  0  0  0  0  0  0
   26.3260    7.5990   -8.3850 C   0  0  0  0  0  0  0  0  0  0  0  0
   25.5020    8.6460   -8.7650 N   0  0  0  0  0  0  0  0  0  0  0  0
   24.7770    9.0420   -7.6540 N   0  0  0  0  0  0  0  0  0  0  0  0
   25.1260    8.2620   -6.6210 C   0  0  0  0  0  0  0  0  0  0  0  0
   26.0400    7.3830   -7.0490 C   0  0  0  0  0  0  0  0  0  0  0  0
   23.8280   10.1220   -7.7390 C   0  0  1  0  0  0  0  0  0  0  0  0
   30.2950   12.3100  -13.4200 C   0  0  0  0  0  0  0  0  0  0  0  0
   29.5990   13.4840  -13.1610 C   0  0  0  0  0  0  0  0  0  0  0  0
   28.5320   13.4780  -12.2730 C   0  0  0  0  0  0  0  0  0  0  0  0
   28.1590   12.2970  -11.6420 N   0  0  0  0  0  0  0  0  0  0  0  0
   27.7770   14.7540  -11.9920 C   0  0  1  0  0  0  0  0  0  0  0  0
   29.0649    6.0638  -10.7380 H   0  0  0  0  0  0  0  0  0  0  0  0
   30.5479    7.2308  -12.3109 H   0  0  0  0  0  0  0  0  0  0  0  0
   27.0699    9.8127   -9.9988 H   0  0  0  0  0  0  0  0  0  0  0  0
   24.7293    8.3324   -5.5974 H   0  0  0  0  0  0  0  0  0  0  0  0
   26.4985    6.6002   -6.4269 H   0  0  0  0  0  0  0  0  0  0  0  0
   23.5460   10.4429   -6.7254 H   0  0  0  0  0  0  0  0  0  0  0  0
   24.2813   10.9668   -8.2783 H   0  0  0  0  0  0  0  0  0  0  0  0
   22.9319    9.7811   -8.2783 H   0  0  0  0  0  0  0  0  0  0  0  0
   31.1415   12.3156  -14.1224 H   0  0  0  0  0  0  0  0  0  0  0  0
   29.8936   14.4190  -13.6599 H   0  0  0  0  0  0  0  0  0  0  0  0
   27.6919   14.8978  -10.9048 H   0  0  0  0  0  0  0  0  0  0  0  0
   28.3173   15.6045  -12.4332 H   0  0  0  0  0  0  0  0  0  0  0  0
   26.7714   14.6898  -12.4332 H   0  0  0  0  0  0  0  0  0  0  0  0
  1  2  2  0
  1  7  1  0
  1  5  1  0
  2  3  1  0
  3  4  1  0
  4  8  2  0
  4  6  1  0
  6 10  1  0
  6  7  2  0
  8  9  1  0
  9 17  1  0
  9 10  2  0
 10 20  1  0
 17 18  2  0
 18 19  1  0
 19 21  1  0
 19 20  2  0
  5 11  1  0
 11 12  2  0
 11 15  1  0
 12 13  1  0
 13 16  1  0
 13 14  1  0
 14 15  2  0
  2 22  1  0
  3 23  1  0
  7 24  1  0
 14 25  1  0
 15 26  1  0
 16 27  1  1
 16 28  1  0
 16 29  1  0
 17 30  1  0
 18 31  1  0
 21 32  1  1
 21 33  1  0
 21 34  1  0
M  END
>  <Pose ID>  (64)
508

>  <Score>  (64)
-7.451889514923096

>  <smiles>  (64)
Cc1ccc2nc3[nH]cc(Oc4ccn(C)n4)cc-3c2n1

$$$$

     RDKit          3D

 40 43  0  0  0  0  0  0  0  0999 V2000
   28.0210    7.8720  -10.3630 C   0  0  0  0  0  0  0  0  0  0  0  0
   29.0120    7.1380  -11.0050 C   0  0  0  0  0  0  0  0  0  0  0  0
   29.8910    7.7690  -11.8760 N   0  0  0  0  0  0  0  0  0  0  0  0
   29.7820    9.1360  -12.1060 C   0  0  0  0  0  0  0  0  0  0  0  0
   27.1860    7.0650   -9.4770 O   0  0  0  0  0  0  0  0  0  0  0  0
   28.7920    9.8690  -11.4620 C   0  0  0  0  0  0  0  0  0  0  0  0
   27.9150    9.2380  -10.5920 C   0  0  0  0  0  0  0  0  0  0  0  0
   30.5020    9.9600  -12.8910 N   0  0  0  0  0  0  0  0  0  0  0  0
   30.1210   11.0510  -12.8120 C   0  0  0  0  0  0  0  0  0  0  0  0
   29.0150   11.0450  -11.9710 C   0  0  0  0  0  0  0  0  0  0  0  0
   26.3290    7.5970   -8.5090 C   0  0  0  0  0  0  0  0  0  0  0  0
   25.5250    8.6580   -8.8900 N   0  0  0  0  0  0  0  0  0  0  0  0
   24.7830    9.0490   -7.7910 N   0  0  0  0  0  0  0  0  0  0  0  0
   25.1020    8.2530   -6.7610 C   0  0  0  0  0  0  0  0  0  0  0  0
   26.0130    7.3690   -7.1800 C   0  0  0  0  0  0  0  0  0  0  0  0
   23.8490   10.1420   -7.8800 C   0  0  1  0  0  0  0  0  0  0  0  0
   30.5240   12.2310  -13.4240 C   0  0  0  0  0  0  0  0  0  0  0  0
   29.8210   13.4080  -13.1950 C   0  0  0  0  0  0  0  0  0  0  0  0
   28.7150   13.4040  -12.3530 C   0  0  0  0  0  0  0  0  0  0  0  0
   28.3120   12.2220  -11.7420 C   0  0  0  0  0  0  0  0  0  0  0  0
   24.5840    8.3320   -5.4980 N   0  0  0  0  0  0  0  0  0  0  0  0
   24.4530    9.6380   -4.8360 C   0  0  1  0  0  0  0  0  0  0  0  0
   23.8340    7.1230   -5.1390 C   0  0  1  0  0  0  0  0  0  0  0  0
   29.1000    6.0567  -10.8230 H   0  0  0  0  0  0  0  0  0  0  0  0
   30.6241    7.2239  -12.3518 H   0  0  0  0  0  0  0  0  0  0  0  0
   27.1337    9.8208  -10.0822 H   0  0  0  0  0  0  0  0  0  0  0  0
   26.4495    6.5738   -6.5578 H   0  0  0  0  0  0  0  0  0  0  0  0
   23.5696   10.4689   -6.8675 H   0  0  0  0  0  0  0  0  0  0  0  0
   24.3149   10.9793   -8.4202 H   0  0  0  0  0  0  0  0  0  0  0  0
   22.9493    9.8124   -8.4202 H   0  0  0  0  0  0  0  0  0  0  0  0
   31.3995   12.2340  -14.0899 H   0  0  0  0  0  0  0  0  0  0  0  0
   30.1398   14.3424  -13.6800 H   0  0  0  0  0  0  0  0  0  0  0  0
   28.1590   14.3354  -12.1702 H   0  0  0  0  0  0  0  0  0  0  0  0
   27.4360   12.2183  -11.0767 H   0  0  0  0  0  0  0  0  0  0  0  0
   24.4669    9.4990   -3.7449 H   0  0  0  0  0  0  0  0  0  0  0  0
   25.2907   10.2857   -5.1339 H   0  0  0  0  0  0  0  0  0  0  0  0
   23.5034   10.1065   -5.1339 H   0  0  0  0  0  0  0  0  0  0  0  0
   23.7803    7.0365   -4.0437 H   0  0  0  0  0  0  0  0  0  0  0  0
   22.8165    7.1865   -5.5521 H   0  0  0  0  0  0  0  0  0  0  0  0
   24.3429    6.2396   -5.5521 H   0  0  0  0  0  0  0  0  0  0  0  0
  1  2  2  0
  1  7  1  0
  1  5  1  0
  2  3  1  0
  3  4  1  0
  4  8  2  0
  4  6  1  0
  6 10  1  0
  6  7  2  0
  8  9  1  0
  9 17  1  0
  9 10  2  0
 10 20  1  0
 17 18  2  0
 18 19  1  0
 19 20  2  0
  5 11  1  0
 11 12  2  0
 11 15  1  0
 12 13  1  0
 13 16  1  0
 13 14  1  0
 14 15  2  0
 14 21  1  0
 21 23  1  0
 21 22  1  0
  2 24  1  0
  3 25  1  0
  7 26  1  0
 15 27  1  0
 16 28  1  1
 16 29  1  0
 16 30  1  0
 17 31  1  0
 18 32  1  0
 19 33  1  0
 20 34  1  0
 22 35  1  1
 22 36  1  0
 22 37  1  0
 23 38  1  1
 23 39  1  0
 23 40  1  0
M  END
>  <Pose ID>  (65)
533

>  <Score>  (65)
-7.4446940422058105

>  <smiles>  (65)
CN(C)c1cc(Oc2c[nH]c3nc4ccccc4c-3c2)nn1C

$$$$

     RDKit          3D

 34 37  0  0  0  0  0  0  0  0999 V2000
   27.9910    7.8880  -10.3420 C   0  0  0  0  0  0  0  0  0  0  0  0
   28.9330    7.1450  -11.0420 C   0  0  0  0  0  0  0  0  0  0  0  0
   29.8060    7.7760  -11.9200 N   0  0  0  0  0  0  0  0  0  0  0  0
   29.7380    9.1530  -12.0990 C   0  0  0  0  0  0  0  0  0  0  0  0
   27.1580    7.0800   -9.4550 O   0  0  0  0  0  0  0  0  0  0  0  0
   28.7950    9.8970  -11.3980 C   0  0  0  0  0  0  0  0  0  0  0  0
   27.9240    9.2650  -10.5180 C   0  0  0  0  0  0  0  0  0  0  0  0
   30.4600    9.9790  -12.8790 N   0  0  0  0  0  0  0  0  0  0  0  0
   30.0630   11.1550  -12.7350 C   0  0  0  0  0  0  0  0  0  0  0  0
   29.0320   11.1690  -11.8030 C   0  0  0  0  0  0  0  0  0  0  0  0
   26.3520    7.6040   -8.4400 C   0  0  0  0  0  0  0  0  0  0  0  0
   25.5740    8.7060   -8.7600 N   0  0  0  0  0  0  0  0  0  0  0  0
   24.8820    9.0820   -7.6220 N   0  0  0  0  0  0  0  0  0  0  0  0
   25.2060    8.2400   -6.6310 C   0  0  0  0  0  0  0  0  0  0  0  0
   26.0720    7.3400   -7.1110 C   0  0  0  0  0  0  0  0  0  0  0  0
   23.9850   10.2080   -7.6420 C   0  0  1  0  0  0  0  0  0  0  0  0
   30.4770   12.3410  -13.3330 C   0  0  0  0  0  0  0  0  0  0  0  0
   29.8590   13.5400  -12.9970 C   0  0  0  0  0  0  0  0  0  0  0  0
   28.8280   13.5540  -12.0640 N   0  0  0  0  0  0  0  0  0  0  0  0
   28.3830   12.3880  -11.4740 C   0  0  0  0  0  0  0  0  0  0  0  0
   27.2320   12.4090  -10.4990 C   0  0  1  0  0  0  0  0  0  0  0  0
   28.9880    6.0554  -10.9011 H   0  0  0  0  0  0  0  0  0  0  0  0
   30.5037    7.2233  -12.4383 H   0  0  0  0  0  0  0  0  0  0  0  0
   27.1815    9.8550   -9.9607 H   0  0  0  0  0  0  0  0  0  0  0  0
   24.8253    8.2816   -5.5998 H   0  0  0  0  0  0  0  0  0  0  0  0
   26.5003    6.5088   -6.5316 H   0  0  0  0  0  0  0  0  0  0  0  0
   23.7476   10.5060   -6.6101 H   0  0  0  0  0  0  0  0  0  0  0  0
   24.4635   11.0487   -8.1656 H   0  0  0  0  0  0  0  0  0  0  0  0
   23.0586    9.9295   -8.1656 H   0  0  0  0  0  0  0  0  0  0  0  0
   31.2926   12.3300  -14.0710 H   0  0  0  0  0  0  0  0  0  0  0  0
   30.1857   14.4781  -13.4694 H   0  0  0  0  0  0  0  0  0  0  0  0
   27.6224   12.4019   -9.4706 H   0  0  0  0  0  0  0  0  0  0  0  0
   26.6336   13.3182  -10.6577 H   0  0  0  0  0  0  0  0  0  0  0  0
   26.6008   11.5222  -10.6577 H   0  0  0  0  0  0  0  0  0  0  0  0
  1  2  2  0
  1  7  1  0
  1  5  1  0
  2  3  1  0
  3  4  1  0
  4  8  2  0
  4  6  1  0
  6 10  1  0
  6  7  2  0
  8  9  1  0
  9 17  1  0
  9 10  2  0
 10 20  1  0
 17 18  2  0
 18 19  1  0
 19 20  2  0
 20 21  1  0
  5 11  1  0
 11 12  2  0
 11 15  1  0
 12 13  1  0
 13 16  1  0
 13 14  1  0
 14 15  2  0
  2 22  1  0
  3 23  1  0
  7 24  1  0
 14 25  1  0
 15 26  1  0
 16 27  1  1
 16 28  1  0
 16 29  1  0
 17 30  1  0
 18 31  1  0
 21 32  1  1
 21 33  1  0
 21 34  1  0
M  END
>  <Pose ID>  (66)
521

>  <Score>  (66)
-7.440811634063721

>  <smiles>  (66)
Cc1nccc2nc3[nH]cc(Oc4ccn(C)n4)cc-3c12

$$$$

     RDKit          3D

 32 34  0  0  0  0  0  0  0  0999 V2000
   28.3090   10.0280  -11.5630 C   0  0  0  0  0  0  0  0  0  0  0  0
   29.1220    8.9000  -11.5760 C   0  0  0  0  0  0  0  0  0  0  0  0
   28.7820    7.7370  -10.9000 N   0  0  0  0  0  0  0  0  0  0  0  0
   27.5690    7.6770  -10.2220 C   0  0  0  0  0  0  0  0  0  0  0  0
   26.7170    8.7760  -10.2260 C   0  0  0  0  0  0  0  0  0  0  0  0
   27.0700    9.9170  -10.9170 C   0  0  0  0  0  0  0  0  0  0  0  0
   27.2470    6.6430   -9.6190 O   0  0  0  0  0  0  0  0  0  0  0  0
   30.3410    8.9310  -12.2450 N   0  0  0  0  0  0  0  0  0  0  0  0
   30.7420   10.0850  -12.9040 C   0  0  0  0  0  0  0  0  0  0  0  0
   29.9270   11.2110  -12.8920 C   0  0  0  0  0  0  0  0  0  0  0  0
   28.7060   11.1790  -12.2100 C   0  0  0  0  0  0  0  0  0  0  0  0
   25.4960    8.9680   -9.6300 N   0  0  0  0  0  0  0  0  0  0  0  0
   25.3170    8.8750   -8.1510 C   0  0  0  0  0  0  0  0  0  0  0  0
   24.7170    7.7300   -7.6420 C   0  0  0  0  0  0  0  0  0  0  0  0
   24.5210    7.5970   -6.2720 C   0  0  0  0  0  0  0  0  0  0  0  0
   24.9270    8.6110   -5.4120 C   0  0  0  0  0  0  0  0  0  0  0  0
   25.5250    9.7570   -5.9200 C   0  0  0  0  0  0  0  0  0  0  0  0
   25.7210    9.8890   -7.2890 N   0  0  0  0  0  0  0  0  0  0  0  0
   27.7420   12.1470  -12.0410 O   0  0  0  0  0  0  0  0  0  0  0  0
   27.6590   13.4280  -12.7340 C   0  0  1  0  0  0  0  0  0  0  0  0
   29.4198    6.9283  -10.9002 H   0  0  0  0  0  0  0  0  0  0  0  0
   26.3631   10.7586  -10.9619 H   0  0  0  0  0  0  0  0  0  0  0  0
   31.7047   10.1084  -13.4357 H   0  0  0  0  0  0  0  0  0  0  0  0
   30.2413   12.1249  -13.4174 H   0  0  0  0  0  0  0  0  0  0  0  0
   24.6795    9.1825  -10.2202 H   0  0  0  0  0  0  0  0  0  0  0  0
   24.3968    6.9280   -8.3234 H   0  0  0  0  0  0  0  0  0  0  0  0
   24.0453    6.6907   -5.8691 H   0  0  0  0  0  0  0  0  0  0  0  0
   24.7744    8.5056   -4.3277 H   0  0  0  0  0  0  0  0  0  0  0  0
   25.8433   10.5598   -5.2387 H   0  0  0  0  0  0  0  0  0  0  0  0
   27.6063   14.2416  -11.9956 H   0  0  0  0  0  0  0  0  0  0  0  0
   28.5503   13.5622  -13.3645 H   0  0  0  0  0  0  0  0  0  0  0  0
   26.7578   13.4461  -13.3645 H   0  0  0  0  0  0  0  0  0  0  0  0
  1 11  1  0
  1  2  2  0
  1  6  1  0
  2  8  1  0
  2  3  1  0
  3  4  1  0
  4  5  1  0
  4  7  2  0
  5  6  2  0
  5 12  1  0
  8  9  2  0
  9 10  1  0
 10 11  2  0
 11 19  1  0
 12 13  1  0
 13 14  2  0
 13 18  1  0
 14 15  1  0
 15 16  2  0
 16 17  1  0
 17 18  2  0
 19 20  1  0
  3 21  1  0
  6 22  1  0
  9 23  1  0
 10 24  1  0
 12 25  1  0
 14 26  1  0
 15 27  1  0
 16 28  1  0
 17 29  1  0
 20 30  1  1
 20 31  1  0
 20 32  1  0
M  END
>  <Pose ID>  (67)
170

>  <Score>  (67)
-7.4313554763793945

>  <smiles>  (67)
COc1ccnc2[nH]c(=O)c(Nc3ccccn3)cc12

$$$$

     RDKit          3D

 33 36  0  0  0  0  0  0  0  0999 V2000
   28.4170    9.9920  -11.6320 C   0  0  0  0  0  0  0  0  0  0  0  0
   29.1840    8.8370  -11.5140 C   0  0  0  0  0  0  0  0  0  0  0  0
   28.7720    7.7520  -10.7530 N   0  0  0  0  0  0  0  0  0  0  0  0
   27.5340    7.7970  -10.1240 C   0  0  0  0  0  0  0  0  0  0  0  0
   26.7270    8.9220  -10.2580 C   0  0  0  0  0  0  0  0  0  0  0  0
   27.1520    9.9840  -11.0320 C   0  0  0  0  0  0  0  0  0  0  0  0
   27.1460    6.8330   -9.4470 O   0  0  0  0  0  0  0  0  0  0  0  0
   30.4270    8.7630  -12.1320 N   0  0  0  0  0  0  0  0  0  0  0  0
   30.9000    9.8390  -12.8720 C   0  0  0  0  0  0  0  0  0  0  0  0
   30.1320   10.9920  -12.9910 C   0  0  0  0  0  0  0  0  0  0  0  0
   28.8870   11.0650  -12.3590 C   0  0  0  0  0  0  0  0  0  0  0  0
   25.4940    9.2110   -9.7330 N   0  0  0  0  0  0  0  0  0  0  0  0
   25.2550    9.2560   -8.2580 C   0  0  0  0  0  0  0  0  0  0  0  0
   24.5910    8.1830   -7.6770 C   0  0  0  0  0  0  0  0  0  0  0  0
   24.3370    8.1790   -6.3110 C   0  0  0  0  0  0  0  0  0  0  0  0
   24.7520    9.2490   -5.5250 C   0  0  0  0  0  0  0  0  0  0  0  0
   25.4150   10.3220   -6.1050 C   0  0  0  0  0  0  0  0  0  0  0  0
   25.6690   10.3260   -7.4730 N   0  0  0  0  0  0  0  0  0  0  0  0
   28.3310   12.2900  -12.6080 N   0  0  0  0  0  0  0  0  0  0  0  0
   28.9940   13.1880  -13.3590 C   0  0  0  0  0  0  0  0  0  0  0  0
   30.2060   12.5200  -13.7020 O   0  0  0  0  0  0  0  0  0  0  0  0
   25.8600   11.4840   -5.2530 C   0  0  1  0  0  0  0  0  0  0  0  0
   29.3765    6.9237  -10.6557 H   0  0  0  0  0  0  0  0  0  0  0  0
   26.4813   10.8432  -11.1804 H   0  0  0  0  0  0  0  0  0  0  0  0
   31.8821    9.7790  -13.3639 H   0  0  0  0  0  0  0  0  0  0  0  0
   24.7100    9.4026  -10.3730 H   0  0  0  0  0  0  0  0  0  0  0  0
   24.2661    7.3359   -8.2989 H   0  0  0  0  0  0  0  0  0  0  0  0
   23.8084    7.3307   -5.8517 H   0  0  0  0  0  0  0  0  0  0  0  0
   24.5547    9.2449   -4.4429 H   0  0  0  0  0  0  0  0  0  0  0  0
   28.6751   14.2019  -13.6425 H   0  0  0  0  0  0  0  0  0  0  0  0
   25.7586   11.2194   -4.1901 H   0  0  0  0  0  0  0  0  0  0  0  0
   26.9117   11.7189   -5.4737 H   0  0  0  0  0  0  0  0  0  0  0  0
   25.2342   12.3613   -5.4737 H   0  0  0  0  0  0  0  0  0  0  0  0
  1 11  1  0
  1  2  2  0
  1  6  1  0
  2  8  1  0
  2  3  1  0
  3  4  1  0
  4  5  1  0
  4  7  2  0
  5  6  2  0
  5 12  1  0
  8  9  2  0
  9 10  1  0
 10 21  1  0
 10 11  2  0
 11 19  1  0
 19 20  2  0
 20 21  1  0
 12 13  1  0
 13 14  2  0
 13 18  1  0
 14 15  1  0
 15 16  2  0
 16 17  1  0
 17 18  2  0
 17 22  1  0
  3 23  1  0
  6 24  1  0
  9 25  1  0
 12 26  1  0
 14 27  1  0
 15 28  1  0
 16 29  1  0
 20 30  1  0
 22 31  1  1
 22 32  1  0
 22 33  1  0
M  END
>  <Pose ID>  (68)
168

>  <Score>  (68)
-7.4299421310424805

>  <smiles>  (68)
Cc1cccc(Nc2cc3c(ncc4ocnc43)[nH]c2=O)n1

$$$$

     RDKit          3D

 38 41  0  0  0  0  0  0  0  0999 V2000
   28.0090    7.8900  -10.3730 C   0  0  0  0  0  0  0  0  0  0  0  0
   28.9530    7.1430  -11.0670 C   0  0  0  0  0  0  0  0  0  0  0  0
   29.8260    7.7710  -11.9470 N   0  0  0  0  0  0  0  0  0  0  0  0
   29.7550    9.1470  -12.1340 C   0  0  0  0  0  0  0  0  0  0  0  0
   27.1770    7.0870   -9.4810 O   0  0  0  0  0  0  0  0  0  0  0  0
   28.8100    9.8940  -11.4390 C   0  0  0  0  0  0  0  0  0  0  0  0
   27.9380    9.2670  -10.5580 C   0  0  0  0  0  0  0  0  0  0  0  0
   30.4770    9.9710  -12.9180 N   0  0  0  0  0  0  0  0  0  0  0  0
   30.0170   11.2560  -12.7540 C   0  0  0  0  0  0  0  0  0  0  0  0
   28.9840   11.0400  -11.8150 C   0  0  0  0  0  0  0  0  0  0  0  0
   26.3680    7.6180   -8.4730 C   0  0  0  0  0  0  0  0  0  0  0  0
   25.5880    8.7160   -8.7980 N   0  0  0  0  0  0  0  0  0  0  0  0
   24.8930    9.0970   -7.6640 N   0  0  0  0  0  0  0  0  0  0  0  0
   25.2180    8.2610   -6.6680 C   0  0  0  0  0  0  0  0  0  0  0  0
   26.0880    7.3610   -7.1400 C   0  0  0  0  0  0  0  0  0  0  0  0
   23.9930   10.2220   -7.6940 C   0  0  1  0  0  0  0  0  0  0  0  0
   30.4830   12.5400  -13.3950 C   0  0  1  0  0  0  0  0  0  0  0  0
   28.2950   12.3000  -11.4120 C   0  0  0  0  0  0  0  0  0  0  0  0
   28.1860   12.6480  -10.0710 C   0  0  0  0  0  0  0  0  0  0  0  0
   27.3890   13.7230   -9.6950 C   0  0  0  0  0  0  0  0  0  0  0  0
   26.7010   14.4490  -10.6590 N   0  0  0  0  0  0  0  0  0  0  0  0
   27.6080   13.0270  -12.3780 C   0  0  0  0  0  0  0  0  0  0  0  0
   26.8090   14.0940  -12.0010 C   0  0  0  0  0  0  0  0  0  0  0  0
   29.0092    6.0544  -10.9198 H   0  0  0  0  0  0  0  0  0  0  0  0
   30.5259    7.2170  -12.4609 H   0  0  0  0  0  0  0  0  0  0  0  0
   27.1921    9.8587  -10.0072 H   0  0  0  0  0  0  0  0  0  0  0  0
   24.8347    8.3071   -5.6380 H   0  0  0  0  0  0  0  0  0  0  0  0
   26.5192    6.5357   -6.5544 H   0  0  0  0  0  0  0  0  0  0  0  0
   23.7505   10.5251   -6.6648 H   0  0  0  0  0  0  0  0  0  0  0  0
   24.4721   11.0609   -8.2201 H   0  0  0  0  0  0  0  0  0  0  0  0
   23.0694    9.9388   -8.2201 H   0  0  0  0  0  0  0  0  0  0  0  0
   30.7465   13.2662  -12.6119 H   0  0  0  0  0  0  0  0  0  0  0  0
   31.3654   12.3385  -14.0202 H   0  0  0  0  0  0  0  0  0  0  0  0
   29.6768   12.9514  -14.0202 H   0  0  0  0  0  0  0  0  0  0  0  0
   28.7302   12.0730   -9.3074 H   0  0  0  0  0  0  0  0  0  0  0  0
   27.3031   13.9989   -8.6336 H   0  0  0  0  0  0  0  0  0  0  0  0
   27.6989   12.7552  -13.4400 H   0  0  0  0  0  0  0  0  0  0  0  0
   26.2580   14.6628  -12.7645 H   0  0  0  0  0  0  0  0  0  0  0  0
  1  2  2  0
  1  7  1  0
  1  5  1  0
  2  3  1  0
  3  4  1  0
  4  8  2  0
  4  6  1  0
  6 10  1  0
  6  7  2  0
  8  9  1  0
  9 17  1  0
  9 10  2  0
 10 18  1  0
 18 22  1  0
 18 19  2  0
 19 20  1  0
 20 21  2  0
 21 23  1  0
 22 23  2  0
  5 11  1  0
 11 12  2  0
 11 15  1  0
 12 13  1  0
 13 16  1  0
 13 14  1  0
 14 15  2  0
  2 24  1  0
  3 25  1  0
  7 26  1  0
 14 27  1  0
 15 28  1  0
 16 29  1  1
 16 30  1  0
 16 31  1  0
 17 32  1  1
 17 33  1  0
 17 34  1  0
 19 35  1  0
 20 36  1  0
 22 37  1  0
 23 38  1  0
M  END
>  <Pose ID>  (69)
492

>  <Score>  (69)
-7.41714334487915

>  <smiles>  (69)
Cc1nc2[nH]cc(Oc3ccn(C)n3)cc-2c1-c1ccncc1

$$$$

     RDKit          3D

 36 39  0  0  0  0  0  0  0  0999 V2000
   26.3560    6.6360   -8.4530 C   0  0  0  0  0  0  0  0  0  0  0  0
   27.3680    7.1700   -9.2410 N   0  0  0  0  0  0  0  0  0  0  0  0
   25.3210    7.4520   -8.0070 N   0  0  0  0  0  0  0  0  0  0  0  0
   25.2910    8.7350   -8.3520 C   0  0  0  0  0  0  0  0  0  0  0  0
   26.2130    9.4750   -9.0840 C   0  0  0  0  0  0  0  0  0  0  0  0
   27.3440    8.5150   -9.5880 C   0  0  0  0  0  0  0  0  0  0  0  0
   24.1830    9.3590   -7.7940 N   0  0  0  0  0  0  0  0  0  0  0  0
   23.9950   10.7230   -7.9700 C   0  0  0  0  0  0  0  0  0  0  0  0
   24.9130   11.4650   -8.7040 N   0  0  0  0  0  0  0  0  0  0  0  0
   26.0240   10.8540   -9.2600 C   0  0  0  0  0  0  0  0  0  0  0  0
   26.9600   11.6000  -10.0400 C   0  0  0  0  0  0  0  0  0  0  0  0
   27.1280   11.1230  -11.3370 C   0  0  0  0  0  0  0  0  0  0  0  0
   27.7920   12.6010   -9.5540 C   0  0  0  0  0  0  0  0  0  0  0  0
   28.7180   13.0790  -10.3480 C   0  0  0  0  0  0  0  0  0  0  0  0
   28.9450   12.6440  -11.6470 C   0  0  0  0  0  0  0  0  0  0  0  0
   28.1320   11.6500  -12.1420 C   0  0  0  0  0  0  0  0  0  0  0  0
   29.9860   13.1890  -12.3900 C   0  0  0  0  0  0  0  0  0  0  0  0
   29.5320   14.0600   -9.7890 C   0  0  0  0  0  0  0  0  0  0  0  0
   30.5730   14.6040  -10.5320 C   0  0  0  0  0  0  0  0  0  0  0  0
   30.7980   14.1700  -11.8330 N   0  0  0  0  0  0  0  0  0  0  0  0
   30.5160   13.0840  -13.5620 C   0  0  1  0  0  0  0  0  0  0  0  0
   27.8400   13.2300   -8.3290 O   0  0  0  0  0  0  0  0  0  0  0  0
   27.0180   14.3940   -8.3730 C   0  0  1  0  0  0  0  0  0  0  0  0
   26.3730    5.5700   -8.1822 H   0  0  0  0  0  0  0  0  0  0  0  0
   28.1395    8.9163  -10.2332 H   0  0  0  0  0  0  0  0  0  0  0  0
   23.1177   11.2177   -7.5277 H   0  0  0  0  0  0  0  0  0  0  0  0
   26.4688   10.3319  -11.7238 H   0  0  0  0  0  0  0  0  0  0  0  0
   28.2752   11.2754  -13.1663 H   0  0  0  0  0  0  0  0  0  0  0  0
   29.3515   14.4044   -8.7600 H   0  0  0  0  0  0  0  0  0  0  0  0
   31.2185   15.3776  -10.0906 H   0  0  0  0  0  0  0  0  0  0  0  0
   31.5905   12.8711  -13.4608 H   0  0  0  0  0  0  0  0  0  0  0  0
   30.0301   12.2647  -14.1121 H   0  0  0  0  0  0  0  0  0  0  0  0
   30.3792   14.0267  -14.1121 H   0  0  0  0  0  0  0  0  0  0  0  0
   26.7881   14.7195   -7.3477 H   0  0  0  0  0  0  0  0  0  0  0  0
   27.5495   15.1984   -8.9026 H   0  0  0  0  0  0  0  0  0  0  0  0
   26.0822   14.1622   -8.9026 H   0  0  0  0  0  0  0  0  0  0  0  0
 11 12  2  0
 11 13  1  0
 11 10  1  0
 12 16  1  0
 13 14  2  0
 13 22  1  0
 14 15  1  0
 14 18  1  0
 15 17  1  0
 15 16  2  0
 17 21  1  0
 17 20  2  0
 18 19  2  0
 19 20  1  0
  1  2  2  0
  1  3  1  0
  2  6  1  0
  3  4  2  0
  4  5  1  0
  4  7  1  0
  5  6  2  0
  5 10  1  0
  7  8  2  0
  8  9  1  0
  9 10  2  0
 22 23  1  0
  1 24  1  0
  6 25  1  0
  8 26  1  0
 12 27  1  0
 16 28  1  0
 18 29  1  0
 19 30  1  0
 21 31  1  1
 21 32  1  0
 21 33  1  0
 23 34  1  1
 23 35  1  0
 23 36  1  0
M  END
>  <Pose ID>  (70)
42

>  <Score>  (70)
-7.4017510414123535

>  <smiles>  (70)
COc1c(-c2ncnc3ncncc23)ccc2c(C)nccc12

$$$$

     RDKit          3D

 26 28  0  0  0  0  0  0  0  0999 V2000
   28.2670   11.5930  -11.5280 C   0  0  0  0  0  0  0  0  0  0  0  0
   27.8310   10.4950  -10.8440 N   0  0  0  0  0  0  0  0  0  0  0  0
   26.8150   10.4890   -9.8950 C   0  0  0  0  0  0  0  0  0  0  0  0
   27.6180   12.7950  -11.2720 C   0  0  0  0  0  0  0  0  0  0  0  0
   26.5780    9.3080   -9.4020 N   0  0  0  0  0  0  0  0  0  0  0  0
   26.4890   12.8520  -10.2330 C   0  0  0  0  0  0  0  0  0  0  0  0
   26.1460   11.6690   -9.5900 C   0  0  0  0  0  0  0  0  0  0  0  0
   28.0080   13.9520  -11.9360 C   0  0  0  0  0  0  0  0  0  0  0  0
   29.0490   13.9080  -12.8580 N   0  0  0  0  0  0  0  0  0  0  0  0
   29.6960   12.7070  -13.1140 C   0  0  0  0  0  0  0  0  0  0  0  0
   29.2910   11.5430  -12.4600 C   0  0  0  0  0  0  0  0  0  0  0  0
   25.6020    9.1460   -8.4580 C   0  0  0  0  0  0  0  0  0  0  0  0
   27.2320    8.0770   -9.7330 N   0  0  0  0  0  0  0  0  0  0  0  0
   25.6140    7.8060   -8.1900 C   0  0  0  0  0  0  0  0  0  0  0  0
   26.6300    7.1960   -8.9740 C   0  0  0  0  0  0  0  0  0  0  0  0
   29.9690   10.2300  -12.7660 C   0  0  1  0  0  0  0  0  0  0  0  0
   25.9705   13.7952  -10.0059 H   0  0  0  0  0  0  0  0  0  0  0  0
   25.3433   11.6660   -8.8379 H   0  0  0  0  0  0  0  0  0  0  0  0
   27.4935   14.9027  -11.7325 H   0  0  0  0  0  0  0  0  0  0  0  0
   30.5282   12.6729  -13.8326 H   0  0  0  0  0  0  0  0  0  0  0  0
   24.9551    9.9178   -8.0155 H   0  0  0  0  0  0  0  0  0  0  0  0
   24.9483    7.2864   -7.4851 H   0  0  0  0  0  0  0  0  0  0  0  0
   26.8782    6.1247   -8.9469 H   0  0  0  0  0  0  0  0  0  0  0  0
   30.2302    9.7241  -11.8248 H   0  0  0  0  0  0  0  0  0  0  0  0
   29.2875    9.5923  -13.3481 H   0  0  0  0  0  0  0  0  0  0  0  0
   30.8835   10.4165  -13.3481 H   0  0  0  0  0  0  0  0  0  0  0  0
  1 11  1  0
  1  4  1  0
  1  2  2  0
  2  3  1  0
  3  7  2  0
  3  5  1  0
  4  8  1  0
  4  6  2  0
  6  7  1  0
  8  9  2  0
  9 10  1  0
 10 11  2  0
 11 16  1  0
  5 13  1  0
  5 12  1  0
 12 14  2  0
 13 15  2  0
 14 15  1  0
  6 17  1  0
  7 18  1  0
  8 19  1  0
 10 20  1  0
 12 21  1  0
 14 22  1  0
 15 23  1  0
 16 24  1  1
 16 25  1  0
 16 26  1  0
M  END
>  <Pose ID>  (71)
93

>  <Score>  (71)
-7.397437572479248

>  <smiles>  (71)
Cc1cncc2ccc(-n3cccn3)nc12

$$$$

     RDKit          3D

 37 40  0  0  0  0  0  0  0  0999 V2000
   28.0060    7.8970  -10.3630 C   0  0  0  0  0  0  0  0  0  0  0  0
   29.0000    7.1510  -10.9820 C   0  0  0  0  0  0  0  0  0  0  0  0
   29.8940    7.7680  -11.8520 N   0  0  0  0  0  0  0  0  0  0  0  0
   29.7920    9.1320  -12.1010 C   0  0  0  0  0  0  0  0  0  0  0  0
   27.1570    7.1050   -9.4770 O   0  0  0  0  0  0  0  0  0  0  0  0
   28.7950    9.8780  -11.4800 C   0  0  0  0  0  0  0  0  0  0  0  0
   27.9040    9.2600  -10.6100 C   0  0  0  0  0  0  0  0  0  0  0  0
   30.5240    9.9430  -12.8880 N   0  0  0  0  0  0  0  0  0  0  0  0
   30.0780   11.1200  -12.8160 C   0  0  0  0  0  0  0  0  0  0  0  0
   28.9830   11.1320  -11.9630 C   0  0  0  0  0  0  0  0  0  0  0  0
   26.2900    7.6530   -8.5260 C   0  0  0  0  0  0  0  0  0  0  0  0
   25.4940    8.7100   -8.9330 N   0  0  0  0  0  0  0  0  0  0  0  0
   24.7380    9.1180   -7.8480 N   0  0  0  0  0  0  0  0  0  0  0  0
   25.0430    8.3350   -6.8030 C   0  0  0  0  0  0  0  0  0  0  0  0
   25.9570    7.4430   -7.2000 C   0  0  0  0  0  0  0  0  0  0  0  0
   23.8090   10.2130   -7.9640 C   0  0  1  0  0  0  0  0  0  0  0  0
   30.4890   12.2950  -13.4340 C   0  0  0  0  0  0  0  0  0  0  0  0
   29.8030   13.4800  -13.2000 C   0  0  0  0  0  0  0  0  0  0  0  0
   28.7070   13.4920  -12.3470 C   0  0  0  0  0  0  0  0  0  0  0  0
   28.2970   12.3170  -11.7270 N   0  0  0  0  0  0  0  0  0  0  0  0
   24.3900   11.6740   -8.3780 C   0  0  1  0  0  0  0  0  0  0  0  0
   24.4560    8.4430   -5.4170 C   0  0  1  0  0  0  0  0  0  0  0  0
   29.0809    6.0719  -10.7847 H   0  0  0  0  0  0  0  0  0  0  0  0
   30.6311    7.2142  -12.3113 H   0  0  0  0  0  0  0  0  0  0  0  0
   27.1179    9.8507  -10.1170 H   0  0  0  0  0  0  0  0  0  0  0  0
   26.3834    6.6544   -6.5626 H   0  0  0  0  0  0  0  0  0  0  0  0
   23.0655    9.9306   -8.7239 H   0  0  0  0  0  0  0  0  0  0  0  0
   23.4239   10.3525   -6.9431 H   0  0  0  0  0  0  0  0  0  0  0  0
   31.3578   12.2866  -14.1086 H   0  0  0  0  0  0  0  0  0  0  0  0
   30.1280   14.4094  -13.6905 H   0  0  0  0  0  0  0  0  0  0  0  0
   28.1637   14.4304  -12.1621 H   0  0  0  0  0  0  0  0  0  0  0  0
   24.6186   12.2489   -7.4685 H   0  0  0  0  0  0  0  0  0  0  0  0
   25.3068   11.5489   -8.9728 H   0  0  0  0  0  0  0  0  0  0  0  0
   23.6377   12.2127   -8.9728 H   0  0  0  0  0  0  0  0  0  0  0  0
   25.2502    8.2969   -4.6700 H   0  0  0  0  0  0  0  0  0  0  0  0
   24.0075    9.4387   -5.2853 H   0  0  0  0  0  0  0  0  0  0  0  0
   23.6825    7.6721   -5.2853 H   0  0  0  0  0  0  0  0  0  0  0  0
  1  2  2  0
  1  7  1  0
  1  5  1  0
  2  3  1  0
  3  4  1  0
  4  8  2  0
  4  6  1  0
  6 10  1  0
  6  7  2  0
  8  9  1  0
  9 17  1  0
  9 10  2  0
 10 20  1  0
 17 18  2  0
 18 19  1  0
 19 20  2  0
  5 11  1  0
 11 12  2  0
 11 15  1  0
 12 13  1  0
 13 16  1  0
 13 14  1  0
 14 15  2  0
 14 22  1  0
 16 21  1  0
  2 23  1  0
  3 24  1  0
  7 25  1  0
 15 26  1  0
 16 27  1  6
 16 28  1  0
 17 29  1  0
 18 30  1  0
 19 31  1  0
 21 32  1  1
 21 33  1  0
 21 34  1  0
 22 35  1  1
 22 36  1  0
 22 37  1  0
M  END
>  <Pose ID>  (72)
512

>  <Score>  (72)
-7.367802143096924

>  <smiles>  (72)
CCn1nc(Oc2c[nH]c3nc4cccnc4c-3c2)cc1C

$$$$

     RDKit          3D

 18 19  0  0  0  0  0  0  0  0999 V2000
   28.7220    9.7800  -11.8520 C   0  0  0  0  0  0  0  0  0  0  0  0
   29.3150    8.5330  -11.8870 C   0  0  0  0  0  0  0  0  0  0  0  0
   28.8150    7.5060  -11.0940 N   0  0  0  0  0  0  0  0  0  0  0  0
   27.7350    7.7380  -10.2530 C   0  0  0  0  0  0  0  0  0  0  0  0
   27.6510   10.0280  -10.9950 C   0  0  0  0  0  0  0  0  0  0  0  0
   27.1530    9.0010  -10.2040 C   0  0  0  0  0  0  0  0  0  0  0  0
   27.0860    6.9200   -9.4070 N   0  0  0  0  0  0  0  0  0  0  0  0
   26.0790    7.6270   -8.7890 C   0  0  0  0  0  0  0  0  0  0  0  0
   26.2580    8.8960   -9.3840 C   0  0  0  0  0  0  0  0  0  0  0  0
   29.2360   10.8800  -12.7480 C   0  0  1  0  0  0  0  0  0  0  0  0
   30.1810    8.3527  -12.5409 H   0  0  0  0  0  0  0  0  0  0  0  0
   29.2466    6.5715  -11.1306 H   0  0  0  0  0  0  0  0  0  0  0  0
   27.2029   11.0314  -10.9456 H   0  0  0  0  0  0  0  0  0  0  0  0
   25.3422    7.2967   -8.0420 H   0  0  0  0  0  0  0  0  0  0  0  0
   25.6182    9.7506   -9.1188 H   0  0  0  0  0  0  0  0  0  0  0  0
   29.6216   11.7052  -12.1312 H   0  0  0  0  0  0  0  0  0  0  0  0
   30.0442   10.4881  -13.3830 H   0  0  0  0  0  0  0  0  0  0  0  0
   28.4169   11.2486  -13.3830 H   0  0  0  0  0  0  0  0  0  0  0  0
  1 10  1  0
  1  2  2  0
  1  5  1  0
  2  3  1  0
  3  4  1  0
  4  6  1  0
  4  7  2  0
  5  6  2  0
  6  9  1  0
  7  8  1  0
  8  9  2  0
  2 11  1  0
  3 12  1  0
  5 13  1  0
  8 14  1  0
  9 15  1  0
 10 16  1  1
 10 17  1  0
 10 18  1  0
M  END
>  <Pose ID>  (73)
189

>  <Score>  (73)
-7.358991622924805

>  <smiles>  (73)
Cc1c[nH]c2nccc-2c1

$$$$

     RDKit          3D

 31 34  0  0  0  0  0  0  0  0999 V2000
   27.2100    8.1910   -9.5700 C   0  0  0  0  0  0  0  0  0  0  0  0
   27.0900    7.0620   -8.7660 N   0  0  0  0  0  0  0  0  0  0  0  0
   26.1420    7.0320   -7.7490 C   0  0  0  0  0  0  0  0  0  0  0  0
   25.3150    8.1300   -7.5350 C   0  0  0  0  0  0  0  0  0  0  0  0
   25.4340    9.2570   -8.3410 N   0  0  0  0  0  0  0  0  0  0  0  0
   26.3830    9.2880   -9.3570 C   0  0  0  0  0  0  0  0  0  0  0  0
   24.3180    8.2710   -6.5770 C   0  0  0  0  0  0  0  0  0  0  0  0
   23.9980    7.2430   -5.6990 C   0  0  0  0  0  0  0  0  0  0  0  0
   23.6150    9.4690   -6.5300 C   0  0  0  0  0  0  0  0  0  0  0  0
   22.9760    7.4090   -4.7760 N   0  0  0  0  0  0  0  0  0  0  0  0
   22.2710    8.6070   -4.7280 C   0  0  0  0  0  0  0  0  0  0  0  0
   24.3000   10.1990   -7.7070 N   0  0  0  0  0  0  0  0  0  0  0  0
   22.5900    9.6370   -5.6050 C   0  0  0  0  0  0  0  0  0  0  0  0
   28.1680    8.2210  -10.5980 C   0  0  0  0  0  0  0  0  0  0  0  0
   29.2210    9.1290  -10.6180 O   0  0  0  0  0  0  0  0  0  0  0  0
   28.2270    7.4130  -11.6970 N   0  0  0  0  0  0  0  0  0  0  0  0
   29.8830    8.8140  -11.7800 C   0  0  0  0  0  0  0  0  0  0  0  0
   29.2840    7.7650  -12.4620 C   0  0  0  0  0  0  0  0  0  0  0  0
   21.1590    8.7880   -3.7250 C   0  0  1  0  0  0  0  0  0  0  0  0
   21.2480   10.0410   -2.8630 C   0  0  1  0  0  0  0  0  0  0  0  0
   26.0460    6.1394   -7.1133 H   0  0  0  0  0  0  0  0  0  0  0  0
   26.4793   10.1808   -9.9923 H   0  0  0  0  0  0  0  0  0  0  0  0
   24.5561    6.2958   -5.7359 H   0  0  0  0  0  0  0  0  0  0  0  0
   22.0322   10.5844   -5.5675 H   0  0  0  0  0  0  0  0  0  0  0  0
   30.7863    9.3350  -12.1301 H   0  0  0  0  0  0  0  0  0  0  0  0
   29.6000    7.3178  -13.4160 H   0  0  0  0  0  0  0  0  0  0  0  0
   20.2080    8.8235   -4.2767 H   0  0  0  0  0  0  0  0  0  0  0  0
   21.2387    7.9386   -3.0306 H   0  0  0  0  0  0  0  0  0  0  0  0
   21.2278    9.7572   -1.8004 H   0  0  0  0  0  0  0  0  0  0  0  0
   22.1861   10.5716   -3.0831 H   0  0  0  0  0  0  0  0  0  0  0  0
   20.3943   10.6989   -3.0831 H   0  0  0  0  0  0  0  0  0  0  0  0
  1 14  1  0
  1  6  2  0
  1  2  1  0
  2  3  2  0
  3  4  1  0
  4  5  1  0
  4  7  2  0
  5  6  1  0
  5 12  1  0
  7  9  1  0
  7  8  1  0
  8 10  2  0
  9 12  2  0
  9 13  1  0
 10 11  1  0
 11 13  2  0
 11 19  1  0
 14 16  2  0
 14 15  1  0
 15 17  1  0
 16 18  1  0
 17 18  2  0
 19 20  1  0
  3 21  1  0
  6 22  1  0
  8 23  1  0
 13 24  1  0
 17 25  1  0
 18 26  1  0
 19 27  1  6
 19 28  1  0
 20 29  1  1
 20 30  1  0
 20 31  1  0
M  END
>  <Pose ID>  (74)
68

>  <Score>  (74)
-7.340795040130615

>  <smiles>  (74)
CCc1cc2nn3cc(-c4ncco4)ncc3c2cn1

$$$$

     RDKit          3D

 31 33  0  0  0  0  0  0  0  0999 V2000
   28.3430    9.9580  -11.6010 C   0  0  0  0  0  0  0  0  0  0  0  0
   29.1110    8.8060  -11.4710 C   0  0  0  0  0  0  0  0  0  0  0  0
   28.7060    7.7310  -10.6920 N   0  0  0  0  0  0  0  0  0  0  0  0
   27.4730    7.7860  -10.0520 C   0  0  0  0  0  0  0  0  0  0  0  0
   26.6650    8.9090  -10.1960 C   0  0  0  0  0  0  0  0  0  0  0  0
   27.0830    9.9590  -10.9880 C   0  0  0  0  0  0  0  0  0  0  0  0
   27.0910    6.8320   -9.3580 O   0  0  0  0  0  0  0  0  0  0  0  0
   30.3490    8.7230  -12.0990 N   0  0  0  0  0  0  0  0  0  0  0  0
   30.8150    9.7880  -12.8590 C   0  0  0  0  0  0  0  0  0  0  0  0
   30.0460   10.9380  -12.9890 C   0  0  0  0  0  0  0  0  0  0  0  0
   28.8050   11.0200  -12.3480 C   0  0  0  0  0  0  0  0  0  0  0  0
   25.4360    9.2060   -9.6640 N   0  0  0  0  0  0  0  0  0  0  0  0
   25.2100    9.2730   -8.1890 C   0  0  0  0  0  0  0  0  0  0  0  0
   24.5510    8.2080   -7.5860 C   0  0  0  0  0  0  0  0  0  0  0  0
   24.3100    8.2250   -6.2170 C   0  0  0  0  0  0  0  0  0  0  0  0
   24.7300    9.3060   -5.4520 C   0  0  0  0  0  0  0  0  0  0  0  0
   25.3890   10.3710   -6.0540 C   0  0  0  0  0  0  0  0  0  0  0  0
   25.6290   10.3540   -7.4230 N   0  0  0  0  0  0  0  0  0  0  0  0
   25.8430   11.5450   -5.2220 C   0  0  1  0  0  0  0  0  0  0  0  0
   29.3108    6.9036  -10.5894 H   0  0  0  0  0  0  0  0  0  0  0  0
   26.4115   10.8166  -11.1416 H   0  0  0  0  0  0  0  0  0  0  0  0
   31.7930    9.7211  -13.3581 H   0  0  0  0  0  0  0  0  0  0  0  0
   30.4116   11.7810  -13.5937 H   0  0  0  0  0  0  0  0  0  0  0  0
   28.1978   11.9326  -12.4403 H   0  0  0  0  0  0  0  0  0  0  0  0
   24.6464    9.3880  -10.2998 H   0  0  0  0  0  0  0  0  0  0  0  0
   24.2202    7.3517   -8.1921 H   0  0  0  0  0  0  0  0  0  0  0  0
   23.7871    7.3831   -5.7397 H   0  0  0  0  0  0  0  0  0  0  0  0
   24.5406    9.3188   -4.3685 H   0  0  0  0  0  0  0  0  0  0  0  0
   25.7471   11.2969   -4.1546 H   0  0  0  0  0  0  0  0  0  0  0  0
   26.8941   11.7730   -5.4524 H   0  0  0  0  0  0  0  0  0  0  0  0
   25.2188   12.4209   -5.4524 H   0  0  0  0  0  0  0  0  0  0  0  0
  1 11  1  0
  1  2  2  0
  1  6  1  0
  2  8  1  0
  2  3  1  0
  3  4  1  0
  4  5  1  0
  4  7  2  0
  5  6  2  0
  5 12  1  0
  8  9  2  0
  9 10  1  0
 10 11  2  0
 12 13  1  0
 13 14  2  0
 13 18  1  0
 14 15  1  0
 15 16  2  0
 16 17  1  0
 17 18  2  0
 17 19  1  0
  3 20  1  0
  6 21  1  0
  9 22  1  0
 10 23  1  0
 11 24  1  0
 12 25  1  0
 14 26  1  0
 15 27  1  0
 16 28  1  0
 19 29  1  1
 19 30  1  0
 19 31  1  0
M  END
>  <Pose ID>  (75)
149

>  <Score>  (75)
-7.337937355041504

>  <smiles>  (75)
Cc1cccc(Nc2cc3cccnc3[nH]c2=O)n1

$$$$

     RDKit          3D

 28 30  0  0  0  0  0  0  0  0999 V2000
   28.3600    9.9760  -11.5590 C   0  0  0  0  0  0  0  0  0  0  0  0
   29.1330    8.8200  -11.5820 C   0  0  0  0  0  0  0  0  0  0  0  0
   28.7540    7.6640  -10.9150 N   0  0  0  0  0  0  0  0  0  0  0  0
   27.5410    7.6410  -10.2360 C   0  0  0  0  0  0  0  0  0  0  0  0
   26.7280    8.7690  -10.2290 C   0  0  0  0  0  0  0  0  0  0  0  0
   27.1190    9.9030  -10.9120 C   0  0  0  0  0  0  0  0  0  0  0  0
   27.1830    6.6140   -9.6410 O   0  0  0  0  0  0  0  0  0  0  0  0
   30.3510    8.8140  -12.2530 N   0  0  0  0  0  0  0  0  0  0  0  0
   30.7920    9.9590  -12.9030 C   0  0  0  0  0  0  0  0  0  0  0  0
   30.0170   11.1130  -12.8810 C   0  0  0  0  0  0  0  0  0  0  0  0
   28.7970   11.1170  -12.1970 C   0  0  0  0  0  0  0  0  0  0  0  0
   25.5150    8.9990   -9.6300 N   0  0  0  0  0  0  0  0  0  0  0  0
   25.3350    8.9000   -8.1500 C   0  0  0  0  0  0  0  0  0  0  0  0
   24.6960    7.7720   -7.6500 C   0  0  0  0  0  0  0  0  0  0  0  0
   24.4980    7.6350   -6.2810 C   0  0  0  0  0  0  0  0  0  0  0  0
   24.9400    8.6270   -5.4130 C   0  0  0  0  0  0  0  0  0  0  0  0
   25.5780    9.7550   -5.9130 C   0  0  0  0  0  0  0  0  0  0  0  0
   25.7760    9.8920   -7.2820 N   0  0  0  0  0  0  0  0  0  0  0  0
   29.3634    6.8336  -10.9228 H   0  0  0  0  0  0  0  0  0  0  0  0
   26.4414   10.7687  -10.9493 H   0  0  0  0  0  0  0  0  0  0  0  0
   31.7546    9.9530  -13.4354 H   0  0  0  0  0  0  0  0  0  0  0  0
   30.3620   12.0196  -13.3996 H   0  0  0  0  0  0  0  0  0  0  0  0
   28.1859   12.0312  -12.1682 H   0  0  0  0  0  0  0  0  0  0  0  0
   24.7058    9.2469  -10.2171 H   0  0  0  0  0  0  0  0  0  0  0  0
   24.3469    6.9875   -8.3375 H   0  0  0  0  0  0  0  0  0  0  0  0
   23.9920    6.7423   -5.8847 H   0  0  0  0  0  0  0  0  0  0  0  0
   24.7844    8.5185   -4.3295 H   0  0  0  0  0  0  0  0  0  0  0  0
   25.9265   10.5399   -5.2256 H   0  0  0  0  0  0  0  0  0  0  0  0
  1 11  1  0
  1  2  2  0
  1  6  1  0
  2  8  1  0
  2  3  1  0
  3  4  1  0
  4  5  1  0
  4  7  2  0
  5  6  2  0
  5 12  1  0
  8  9  2  0
  9 10  1  0
 10 11  2  0
 12 13  1  0
 13 14  2  0
 13 18  1  0
 14 15  1  0
 15 16  2  0
 16 17  1  0
 17 18  2  0
  3 19  1  0
  6 20  1  0
  9 21  1  0
 10 22  1  0
 11 23  1  0
 12 24  1  0
 14 25  1  0
 15 26  1  0
 16 27  1  0
 17 28  1  0
M  END
>  <Pose ID>  (76)
147

>  <Score>  (76)
-7.324801921844482

>  <smiles>  (76)
O=c1[nH]c2ncccc2cc1Nc1ccccn1

$$$$

     RDKit          3D

 39 41  0  0  0  0  0  0  0  0999 V2000
   28.2460    9.9980  -11.5740 C   0  0  0  0  0  0  0  0  0  0  0  0
   29.0520    8.8700  -11.4660 C   0  0  0  0  0  0  0  0  0  0  0  0
   28.6890    7.7740  -10.6980 N   0  0  0  0  0  0  0  0  0  0  0  0
   27.4600    7.7790  -10.0500 C   0  0  0  0  0  0  0  0  0  0  0  0
   26.6150    8.8750  -10.1720 C   0  0  0  0  0  0  0  0  0  0  0  0
   26.9910    9.9500  -10.9530 C   0  0  0  0  0  0  0  0  0  0  0  0
   27.1160    6.8040   -9.3650 O   0  0  0  0  0  0  0  0  0  0  0  0
   30.2880    8.8380  -12.1030 N   0  0  0  0  0  0  0  0  0  0  0  0
   30.7130    9.9270  -12.8520 C   0  0  0  0  0  0  0  0  0  0  0  0
   29.9060   11.0530  -12.9610 C   0  0  0  0  0  0  0  0  0  0  0  0
   28.6680   11.0850  -12.3110 C   0  0  0  0  0  0  0  0  0  0  0  0
   25.3800    9.1260   -9.6280 N   0  0  0  0  0  0  0  0  0  0  0  0
   25.1620    9.1640   -8.1510 C   0  0  0  0  0  0  0  0  0  0  0  0
   24.5440    8.0710   -7.5580 C   0  0  0  0  0  0  0  0  0  0  0  0
   24.3120    8.0630   -6.1870 C   0  0  0  0  0  0  0  0  0  0  0  0
   24.7030    9.1480   -5.4110 C   0  0  0  0  0  0  0  0  0  0  0  0
   25.3210   10.2400   -6.0040 C   0  0  0  0  0  0  0  0  0  0  0  0
   25.5510   10.2490   -7.3740 N   0  0  0  0  0  0  0  0  0  0  0  0
   27.8740   12.1950  -12.4040 N   0  0  0  0  0  0  0  0  0  0  0  0
   27.4020   12.6520  -13.7180 C   0  0  1  0  0  0  0  0  0  0  0  0
   27.8020   13.1570  -11.2580 C   0  0  1  0  0  0  0  0  0  0  0  0
   25.7440   11.4170   -5.1600 C   0  0  1  0  0  0  0  0  0  0  0  0
   29.3223    6.9666  -10.6091 H   0  0  0  0  0  0  0  0  0  0  0  0
   26.2901   10.7866  -11.0905 H   0  0  0  0  0  0  0  0  0  0  0  0
   31.6887    9.8985  -13.3592 H   0  0  0  0  0  0  0  0  0  0  0  0
   30.2396   11.9158  -13.5562 H   0  0  0  0  0  0  0  0  0  0  0  0
   24.5810    9.2929  -10.2562 H   0  0  0  0  0  0  0  0  0  0  0  0
   24.2380    7.2116   -8.1727 H   0  0  0  0  0  0  0  0  0  0  0  0
   23.8196    7.1989   -5.7170 H   0  0  0  0  0  0  0  0  0  0  0  0
   24.5224    9.1411   -4.3259 H   0  0  0  0  0  0  0  0  0  0  0  0
   26.6178   13.4113  -13.5822 H   0  0  0  0  0  0  0  0  0  0  0  0
   28.2422   13.0887  -14.2779 H   0  0  0  0  0  0  0  0  0  0  0  0
   26.9927   11.7982  -14.2779 H   0  0  0  0  0  0  0  0  0  0  0  0
   27.8436   12.6013  -10.3096 H   0  0  0  0  0  0  0  0  0  0  0  0
   28.6504   13.8551  -11.3114 H   0  0  0  0  0  0  0  0  0  0  0  0
   26.8591   13.7210  -11.3114 H   0  0  0  0  0  0  0  0  0  0  0  0
   25.6506   11.1571   -4.0952 H   0  0  0  0  0  0  0  0  0  0  0  0
   26.7901   11.6722   -5.3847 H   0  0  0  0  0  0  0  0  0  0  0  0
   25.0997   12.2798   -5.3847 H   0  0  0  0  0  0  0  0  0  0  0  0
  1 11  1  0
  1  2  2  0
  1  6  1  0
  2  8  1  0
  2  3  1  0
  3  4  1  0
  4  5  1  0
  4  7  2  0
  5  6  2  0
  5 12  1  0
  8  9  2  0
  9 10  1  0
 10 11  2  0
 11 19  1  0
 19 20  1  0
 19 21  1  0
 12 13  1  0
 13 14  2  0
 13 18  1  0
 14 15  1  0
 15 16  2  0
 16 17  1  0
 17 18  2  0
 17 22  1  0
  3 23  1  0
  6 24  1  0
  9 25  1  0
 10 26  1  0
 12 27  1  0
 14 28  1  0
 15 29  1  0
 16 30  1  0
 20 31  1  1
 20 32  1  0
 20 33  1  0
 21 34  1  1
 21 35  1  0
 21 36  1  0
 22 37  1  1
 22 38  1  0
 22 39  1  0
M  END
>  <Pose ID>  (77)
161

>  <Score>  (77)
-7.316895008087158

>  <smiles>  (77)
Cc1cccc(Nc2cc3c(N(C)C)ccnc3[nH]c2=O)n1

$$$$

     RDKit          3D

 28 31  0  0  0  0  0  0  0  0999 V2000
   27.2550    8.1910   -9.6410 C   0  0  0  0  0  0  0  0  0  0  0  0
   27.1070    7.0640   -8.8390 N   0  0  0  0  0  0  0  0  0  0  0  0
   26.1590    7.0540   -7.8230 C   0  0  0  0  0  0  0  0  0  0  0  0
   25.3590    8.1700   -7.6090 C   0  0  0  0  0  0  0  0  0  0  0  0
   25.5040    9.2960   -8.4100 N   0  0  0  0  0  0  0  0  0  0  0  0
   26.4550    9.3070   -9.4250 C   0  0  0  0  0  0  0  0  0  0  0  0
   24.3650    8.3340   -6.6490 C   0  0  0  0  0  0  0  0  0  0  0  0
   24.0190    7.3110   -5.7740 C   0  0  0  0  0  0  0  0  0  0  0  0
   23.6890    9.5470   -6.5990 C   0  0  0  0  0  0  0  0  0  0  0  0
   23.0000    7.5000   -4.8490 N   0  0  0  0  0  0  0  0  0  0  0  0
   22.3240    8.7150   -4.8000 C   0  0  0  0  0  0  0  0  0  0  0  0
   24.3930   10.2630   -7.7740 N   0  0  0  0  0  0  0  0  0  0  0  0
   22.6690    9.7380   -5.6750 C   0  0  0  0  0  0  0  0  0  0  0  0
   28.2130    8.2020  -10.6690 C   0  0  0  0  0  0  0  0  0  0  0  0
   29.2880    9.0830  -10.6860 O   0  0  0  0  0  0  0  0  0  0  0  0
   29.9180    8.7630  -11.8380 C   0  0  0  0  0  0  0  0  0  0  0  0
   29.2940    7.7480  -12.5030 N   0  0  0  0  0  0  0  0  0  0  0  0
   28.2090    7.3700  -11.7720 C   0  0  0  0  0  0  0  0  0  0  0  0
   26.6170   10.5310  -10.2920 C   0  0  1  0  0  0  0  0  0  0  0  0
   26.0419    6.1631   -7.1884 H   0  0  0  0  0  0  0  0  0  0  0  0
   24.5530    6.3501   -5.8140 H   0  0  0  0  0  0  0  0  0  0  0  0
   21.5164    8.8659   -4.0686 H   0  0  0  0  0  0  0  0  0  0  0  0
   22.1347   10.6987   -5.6361 H   0  0  0  0  0  0  0  0  0  0  0  0
   30.8291    9.2633  -12.1981 H   0  0  0  0  0  0  0  0  0  0  0  0
   27.4864    6.5750  -12.0083 H   0  0  0  0  0  0  0  0  0  0  0  0
   26.7346   11.4193   -9.6540 H   0  0  0  0  0  0  0  0  0  0  0  0
   27.5077   10.4152  -10.9271 H   0  0  0  0  0  0  0  0  0  0  0  0
   25.7269   10.6509  -10.9271 H   0  0  0  0  0  0  0  0  0  0  0  0
  1 14  1  0
  1  6  2  0
  1  2  1  0
  2  3  2  0
  3  4  1  0
  4  5  1  0
  4  7  2  0
  5  6  1  0
  5 12  1  0
  6 19  1  0
  7  9  1  0
  7  8  1  0
  8 10  2  0
  9 12  2  0
  9 13  1  0
 10 11  1  0
 11 13  2  0
 14 18  2  0
 14 15  1  0
 15 16  1  0
 16 17  2  0
 17 18  1  0
  3 20  1  0
  8 21  1  0
 11 22  1  0
 13 23  1  0
 16 24  1  0
 18 25  1  0
 19 26  1  1
 19 27  1  0
 19 28  1  0
M  END
>  <Pose ID>  (78)
79

>  <Score>  (78)
-7.283867359161377

>  <smiles>  (78)
Cc1c(-c2cnco2)ncc2c3cnccc3nn12

$$$$

     RDKit          3D

 38 41  0  0  0  0  0  0  0  0999 V2000
   28.0220    7.8970  -10.3950 C   0  0  0  0  0  0  0  0  0  0  0  0
   28.9580    7.1460  -11.0960 C   0  0  0  0  0  0  0  0  0  0  0  0
   29.8370    7.7700  -11.9710 N   0  0  0  0  0  0  0  0  0  0  0  0
   29.7800    9.1490  -12.1480 C   0  0  0  0  0  0  0  0  0  0  0  0
   27.1800    7.0960   -9.5120 O   0  0  0  0  0  0  0  0  0  0  0  0
   28.8440    9.9010  -11.4470 C   0  0  0  0  0  0  0  0  0  0  0  0
   27.9650    9.2760  -10.5720 C   0  0  0  0  0  0  0  0  0  0  0  0
   30.5120    9.9700  -12.9260 N   0  0  0  0  0  0  0  0  0  0  0  0
   30.0650   11.2600  -12.7500 C   0  0  0  0  0  0  0  0  0  0  0  0
   29.0280   11.0470  -11.8150 C   0  0  0  0  0  0  0  0  0  0  0  0
   26.3760    7.6270   -8.4980 C   0  0  0  0  0  0  0  0  0  0  0  0
   25.6070    8.7340   -8.8160 N   0  0  0  0  0  0  0  0  0  0  0  0
   24.9170    9.1160   -7.6780 N   0  0  0  0  0  0  0  0  0  0  0  0
   25.2330    8.2680   -6.6890 C   0  0  0  0  0  0  0  0  0  0  0  0
   26.0920    7.3620   -7.1680 C   0  0  0  0  0  0  0  0  0  0  0  0
   24.0290   10.2500   -7.6990 C   0  0  1  0  0  0  0  0  0  0  0  0
   30.5450   12.5430  -13.3830 C   0  0  1  0  0  0  0  0  0  0  0  0
   28.3490   12.2530  -11.4760 C   0  0  0  0  0  0  0  0  0  0  0  0
   27.2750   12.8660  -12.1090 C   0  0  0  0  0  0  0  0  0  0  0  0
   28.9430   12.8550  -10.3750 N   0  0  0  0  0  0  0  0  0  0  0  0
   28.4640   14.0730   -9.9050 C   0  0  0  0  0  0  0  0  0  0  0  0
   27.3890   14.6860  -10.5370 C   0  0  0  0  0  0  0  0  0  0  0  0
   26.8180   14.1120  -11.6110 C   0  0  0  0  0  0  0  0  0  0  0  0
   29.0025    6.0557  -10.9574 H   0  0  0  0  0  0  0  0  0  0  0  0
   30.5310    7.2124  -12.4889 H   0  0  0  0  0  0  0  0  0  0  0  0
   27.2236    9.8712  -10.0188 H   0  0  0  0  0  0  0  0  0  0  0  0
   24.8506    8.3103   -5.6585 H   0  0  0  0  0  0  0  0  0  0  0  0
   26.5127    6.5264   -6.5893 H   0  0  0  0  0  0  0  0  0  0  0  0
   23.7936   10.5506   -6.6674 H   0  0  0  0  0  0  0  0  0  0  0  0
   24.5148   11.0864   -8.2228 H   0  0  0  0  0  0  0  0  0  0  0  0
   23.1005    9.9790   -8.2228 H   0  0  0  0  0  0  0  0  0  0  0  0
   30.8141   13.2622  -12.5954 H   0  0  0  0  0  0  0  0  0  0  0  0
   31.4266   12.3363  -14.0075 H   0  0  0  0  0  0  0  0  0  0  0  0
   29.7442   12.9657  -14.0075 H   0  0  0  0  0  0  0  0  0  0  0  0
   26.7902   12.3952  -12.9769 H   0  0  0  0  0  0  0  0  0  0  0  0
   28.9357   14.5508   -9.0337 H   0  0  0  0  0  0  0  0  0  0  0  0
   27.0037   15.6439  -10.1577 H   0  0  0  0  0  0  0  0  0  0  0  0
   25.9805   14.6191  -12.1124 H   0  0  0  0  0  0  0  0  0  0  0  0
  1  2  2  0
  1  7  1  0
  1  5  1  0
  2  3  1  0
  3  4  1  0
  4  8  2  0
  4  6  1  0
  6 10  1  0
  6  7  2  0
  8  9  1  0
  9 17  1  0
  9 10  2  0
 10 18  1  0
 18 19  2  0
 18 20  1  0
 19 23  1  0
 20 21  2  0
 21 22  1  0
 22 23  2  0
  5 11  1  0
 11 12  2  0
 11 15  1  0
 12 13  1  0
 13 16  1  0
 13 14  1  0
 14 15  2  0
  2 24  1  0
  3 25  1  0
  7 26  1  0
 14 27  1  0
 15 28  1  0
 16 29  1  1
 16 30  1  0
 16 31  1  0
 17 32  1  1
 17 33  1  0
 17 34  1  0
 19 35  1  0
 21 36  1  0
 22 37  1  0
 23 38  1  0
M  END
>  <Pose ID>  (79)
494

>  <Score>  (79)
-7.275406837463379

>  <smiles>  (79)
Cc1nc2[nH]cc(Oc3ccn(C)n3)cc-2c1-c1ccccn1

$$$$

     RDKit          3D

 35 38  0  0  0  0  0  0  0  0999 V2000
   28.0390    7.8960  -10.3420 C   0  0  0  0  0  0  0  0  0  0  0  0
   29.0290    7.1520  -10.9680 C   0  0  0  0  0  0  0  0  0  0  0  0
   29.9100    7.7660  -11.8500 N   0  0  0  0  0  0  0  0  0  0  0  0
   29.8020    9.1280  -12.1060 C   0  0  0  0  0  0  0  0  0  0  0  0
   27.2020    7.1080   -9.4420 O   0  0  0  0  0  0  0  0  0  0  0  0
   28.8090    9.8750  -11.4800 C   0  0  0  0  0  0  0  0  0  0  0  0
   27.9300    9.2590  -10.5960 C   0  0  0  0  0  0  0  0  0  0  0  0
   30.5220    9.9350  -12.9060 N   0  0  0  0  0  0  0  0  0  0  0  0
   30.0770   11.1080  -12.8380 C   0  0  0  0  0  0  0  0  0  0  0  0
   28.9940   11.1120  -11.9670 C   0  0  0  0  0  0  0  0  0  0  0  0
   26.3430    7.6570   -8.4850 C   0  0  0  0  0  0  0  0  0  0  0  0
   25.5390    8.7100   -8.8910 N   0  0  0  0  0  0  0  0  0  0  0  0
   24.7950    9.1210   -7.8000 N   0  0  0  0  0  0  0  0  0  0  0  0
   25.1120    8.3450   -6.7530 C   0  0  0  0  0  0  0  0  0  0  0  0
   26.0250    7.4550   -7.1540 C   0  0  0  0  0  0  0  0  0  0  0  0
   23.8600   10.2120   -7.9120 C   0  0  1  0  0  0  0  0  0  0  0  0
   30.4690   12.2840  -13.4670 C   0  0  0  0  0  0  0  0  0  0  0  0
   29.7780   13.4660  -13.2240 C   0  0  0  0  0  0  0  0  0  0  0  0
   28.6950   13.4710  -12.3520 C   0  0  0  0  0  0  0  0  0  0  0  0
   28.3040   12.2940  -11.7240 C   0  0  0  0  0  0  0  0  0  0  0  0
   24.3100   11.5350   -7.2710 C   0  0  1  0  0  0  0  0  0  0  0  0
   29.1166    6.0743  -10.7657 H   0  0  0  0  0  0  0  0  0  0  0  0
   30.6434    7.2116  -12.3143 H   0  0  0  0  0  0  0  0  0  0  0  0
   27.1479    9.8502  -10.0972 H   0  0  0  0  0  0  0  0  0  0  0  0
   24.6929    8.4269   -5.7393 H   0  0  0  0  0  0  0  0  0  0  0  0
   26.4617    6.6726   -6.5159 H   0  0  0  0  0  0  0  0  0  0  0  0
   23.6808   10.3968   -8.9814 H   0  0  0  0  0  0  0  0  0  0  0  0
   22.9612    9.8985   -7.3607 H   0  0  0  0  0  0  0  0  0  0  0  0
   31.3257   12.2796  -14.1569 H   0  0  0  0  0  0  0  0  0  0  0  0
   30.0881   14.3968  -13.7215 H   0  0  0  0  0  0  0  0  0  0  0  0
   28.1480   14.4057  -12.1592 H   0  0  0  0  0  0  0  0  0  0  0  0
   27.4474   12.2980  -11.0339 H   0  0  0  0  0  0  0  0  0  0  0  0
   24.2781   11.4412   -6.1755 H   0  0  0  0  0  0  0  0  0  0  0  0
   25.3372   11.7660   -7.5895 H   0  0  0  0  0  0  0  0  0  0  0  0
   23.6366   12.3444   -7.5895 H   0  0  0  0  0  0  0  0  0  0  0  0
  1  2  2  0
  1  7  1  0
  1  5  1  0
  2  3  1  0
  3  4  1  0
  4  8  2  0
  4  6  1  0
  6 10  1  0
  6  7  2  0
  8  9  1  0
  9 17  1  0
  9 10  2  0
 10 20  1  0
 17 18  2  0
 18 19  1  0
 19 20  2  0
  5 11  1  0
 11 12  2  0
 11 15  1  0
 12 13  1  0
 13 16  1  0
 13 14  1  0
 14 15  2  0
 16 21  1  0
  2 22  1  0
  3 23  1  0
  7 24  1  0
 14 25  1  0
 15 26  1  0
 16 27  1  6
 16 28  1  0
 17 29  1  0
 18 30  1  0
 19 31  1  0
 20 32  1  0
 21 33  1  1
 21 34  1  0
 21 35  1  0
M  END
>  <Pose ID>  (80)
498

>  <Score>  (80)
-7.260437488555908

>  <smiles>  (80)
CCn1ccc(Oc2c[nH]c3nc4ccccc4c-3c2)n1

$$$$

     RDKit          3D

 15 15  0  0  0  0  0  0  0  0999 V2000
   28.6640    9.5830  -11.8610 C   0  0  0  0  0  0  0  0  0  0  0  0
   29.2780    8.3440  -11.7210 C   0  0  0  0  0  0  0  0  0  0  0  0
   28.7320    7.3910  -10.8700 N   0  0  0  0  0  0  0  0  0  0  0  0
   27.5720    7.6750  -10.1590 C   0  0  0  0  0  0  0  0  0  0  0  0
   26.9570    8.9120  -10.3010 C   0  0  0  0  0  0  0  0  0  0  0  0
   27.4860    9.8500  -11.1620 C   0  0  0  0  0  0  0  0  0  0  0  0
   27.0850    6.8210   -9.3980 O   0  0  0  0  0  0  0  0  0  0  0  0
   30.5370    8.0340  -12.4920 C   0  0  1  0  0  0  0  0  0  0  0  0
   29.1035   10.3478  -12.5182 H   0  0  0  0  0  0  0  0  0  0  0  0
   29.1874    6.4730  -10.7659 H   0  0  0  0  0  0  0  0  0  0  0  0
   26.0479    9.1435   -9.7266 H   0  0  0  0  0  0  0  0  0  0  0  0
   26.9762   10.8151  -11.2988 H   0  0  0  0  0  0  0  0  0  0  0  0
   31.3577    7.8319  -11.7880 H   0  0  0  0  0  0  0  0  0  0  0  0
   30.3709    7.1499  -13.1251 H   0  0  0  0  0  0  0  0  0  0  0  0
   30.8004    8.8941  -13.1251 H   0  0  0  0  0  0  0  0  0  0  0  0
  1  2  2  0
  1  6  1  0
  2  8  1  0
  2  3  1  0
  3  4  1  0
  4  5  1  0
  4  7  2  0
  5  6  2  0
  1  9  1  0
  3 10  1  0
  5 11  1  0
  6 12  1  0
  8 13  1  1
  8 14  1  0
  8 15  1  0
M  END
>  <Pose ID>  (81)
146

>  <Score>  (81)
-7.2515339851379395

>  <smiles>  (81)
Cc1cccc(=O)[nH]1

$$$$

     RDKit          3D

 37 40  0  0  0  0  0  0  0  0999 V2000
   27.9630    7.8840  -10.3040 C   0  0  0  0  0  0  0  0  0  0  0  0
   28.9430    7.1480  -10.9560 C   0  0  0  0  0  0  0  0  0  0  0  0
   29.8160    7.7740  -11.8370 N   0  0  0  0  0  0  0  0  0  0  0  0
   29.7110    9.1410  -12.0660 C   0  0  0  0  0  0  0  0  0  0  0  0
   27.1350    7.0820   -9.4090 O   0  0  0  0  0  0  0  0  0  0  0  0
   28.7290    9.8810  -11.4120 C   0  0  0  0  0  0  0  0  0  0  0  0
   27.8590    9.2510  -10.5320 C   0  0  0  0  0  0  0  0  0  0  0  0
   30.4260    9.9630  -12.8590 N   0  0  0  0  0  0  0  0  0  0  0  0
   30.0460   11.0940  -12.7880 C   0  0  0  0  0  0  0  0  0  0  0  0
   28.9590   11.0230  -11.9250 C   0  0  0  0  0  0  0  0  0  0  0  0
   26.2900    7.6150   -8.4310 C   0  0  0  0  0  0  0  0  0  0  0  0
   25.4860    8.6810   -8.8050 N   0  0  0  0  0  0  0  0  0  0  0  0
   24.7580    9.0740   -7.6980 N   0  0  0  0  0  0  0  0  0  0  0  0
   25.0830    8.2770   -6.6710 C   0  0  0  0  0  0  0  0  0  0  0  0
   25.9870    7.3890   -7.1010 C   0  0  0  0  0  0  0  0  0  0  0  0
   23.8260   10.1710   -7.7770 C   0  0  1  0  0  0  0  0  0  0  0  0
   30.3970   12.3060  -13.3650 C   0  0  0  0  0  0  0  0  0  0  0  0
   29.6640   13.4520  -13.0790 C   0  0  0  0  0  0  0  0  0  0  0  0
   28.5760   13.3830  -12.2160 C   0  0  0  0  0  0  0  0  0  0  0  0
   28.2230   12.1680  -11.6390 N   0  0  0  0  0  0  0  0  0  0  0  0
   24.3610   11.3600   -6.9430 C   0  0  1  0  0  0  0  0  0  0  0  0
   23.9700   11.2540   -5.4770 C   0  0  1  0  0  0  0  0  0  0  0  0
   29.0285    6.0664  -10.7746 H   0  0  0  0  0  0  0  0  0  0  0  0
   30.5411    7.2251  -12.3205 H   0  0  0  0  0  0  0  0  0  0  0  0
   27.0849    9.8359  -10.0136 H   0  0  0  0  0  0  0  0  0  0  0  0
   24.6769    8.3415   -5.6508 H   0  0  0  0  0  0  0  0  0  0  0  0
   26.4269    6.5919   -6.4836 H   0  0  0  0  0  0  0  0  0  0  0  0
   23.7115   10.4806   -8.8263 H   0  0  0  0  0  0  0  0  0  0  0  0
   22.8500    9.8537   -7.3811 H   0  0  0  0  0  0  0  0  0  0  0  0
   31.2563   12.3601  -14.0496 H   0  0  0  0  0  0  0  0  0  0  0  0
   29.9445   14.4128  -13.5352 H   0  0  0  0  0  0  0  0  0  0  0  0
   27.9948   14.2891  -11.9898 H   0  0  0  0  0  0  0  0  0  0  0  0
   25.4584   11.3793   -7.0167 H   0  0  0  0  0  0  0  0  0  0  0  0
   23.9170   12.2824   -7.3456 H   0  0  0  0  0  0  0  0  0  0  0  0
   24.8405   11.4900   -4.8473 H   0  0  0  0  0  0  0  0  0  0  0  0
   23.1583   11.9645   -5.2617 H   0  0  0  0  0  0  0  0  0  0  0  0
   23.6283   10.2308   -5.2617 H   0  0  0  0  0  0  0  0  0  0  0  0
  1  2  2  0
  1  7  1  0
  1  5  1  0
  2  3  1  0
  3  4  1  0
  4  8  2  0
  4  6  1  0
  6 10  1  0
  6  7  2  0
  8  9  1  0
  9 17  1  0
  9 10  2  0
 10 20  1  0
 17 18  2  0
 18 19  1  0
 19 20  2  0
  5 11  1  0
 11 12  2  0
 11 15  1  0
 12 13  1  0
 13 16  1  0
 13 14  1  0
 14 15  2  0
 16 21  1  0
 21 22  1  0
  2 23  1  0
  3 24  1  0
  7 25  1  0
 14 26  1  0
 15 27  1  0
 16 28  1  6
 16 29  1  0
 17 30  1  0
 18 31  1  0
 19 32  1  0
 21 33  1  1
 21 34  1  0
 22 35  1  1
 22 36  1  0
 22 37  1  0
M  END
>  <Pose ID>  (82)
529

>  <Score>  (82)
-7.251285552978516

>  <smiles>  (82)
CCCn1ccc(Oc2c[nH]c3nc4cccnc4c-3c2)n1

$$$$

     RDKit          3D

 36 39  0  0  0  0  0  0  0  0999 V2000
   28.3930   10.0090  -11.5830 C   0  0  0  0  0  0  0  0  0  0  0  0
   29.1620    8.8560  -11.4680 C   0  0  0  0  0  0  0  0  0  0  0  0
   28.7550    7.7670  -10.7090 N   0  0  0  0  0  0  0  0  0  0  0  0
   27.5170    7.8100  -10.0770 C   0  0  0  0  0  0  0  0  0  0  0  0
   26.7090    8.9350  -10.2070 C   0  0  0  0  0  0  0  0  0  0  0  0
   27.1290    9.9980  -10.9800 C   0  0  0  0  0  0  0  0  0  0  0  0
   27.1330    6.8450   -9.4000 O   0  0  0  0  0  0  0  0  0  0  0  0
   30.4040    8.7850  -12.0900 N   0  0  0  0  0  0  0  0  0  0  0  0
   30.8730    9.8640  -12.8280 C   0  0  0  0  0  0  0  0  0  0  0  0
   30.1030   11.0150  -12.9440 C   0  0  0  0  0  0  0  0  0  0  0  0
   28.8580   11.0850  -12.3100 C   0  0  0  0  0  0  0  0  0  0  0  0
   25.4740    9.2210   -9.6780 N   0  0  0  0  0  0  0  0  0  0  0  0
   25.2390    9.2620   -8.2020 C   0  0  0  0  0  0  0  0  0  0  0  0
   24.5790    8.1860   -7.6240 C   0  0  0  0  0  0  0  0  0  0  0  0
   24.3300    8.1800   -6.2540 C   0  0  0  0  0  0  0  0  0  0  0  0
   24.7430    9.2500   -5.4700 C   0  0  0  0  0  0  0  0  0  0  0  0
   25.4040   10.3260   -6.0500 C   0  0  0  0  0  0  0  0  0  0  0  0
   25.6520   10.3330   -7.4180 N   0  0  0  0  0  0  0  0  0  0  0  0
   30.3430   12.2210  -13.6290 C   0  0  0  0  0  0  0  0  0  0  0  0
   29.2860   13.0940  -13.3750 N   0  0  0  0  0  0  0  0  0  0  0  0
   28.4810   12.4350  -12.5320 O   0  0  0  0  0  0  0  0  0  0  0  0
   23.6120    7.0130   -5.6210 C   0  0  1  0  0  0  0  0  0  0  0  0
   25.8520   11.4860   -5.1960 C   0  0  1  0  0  0  0  0  0  0  0  0
   29.3611    6.9395  -10.6154 H   0  0  0  0  0  0  0  0  0  0  0  0
   26.4561   10.8559  -11.1259 H   0  0  0  0  0  0  0  0  0  0  0  0
   31.8547    9.8075  -13.3211 H   0  0  0  0  0  0  0  0  0  0  0  0
   24.6882    9.4125  -10.3157 H   0  0  0  0  0  0  0  0  0  0  0  0
   24.2534    7.3399   -8.2470 H   0  0  0  0  0  0  0  0  0  0  0  0
   24.5463    9.2455   -4.3877 H   0  0  0  0  0  0  0  0  0  0  0  0
   31.2180   12.4383  -14.2592 H   0  0  0  0  0  0  0  0  0  0  0  0
   23.6655    7.0999   -4.5257 H   0  0  0  0  0  0  0  0  0  0  0  0
   22.5587    7.0149   -5.9380 H   0  0  0  0  0  0  0  0  0  0  0  0
   24.0886    6.0736   -5.9380 H   0  0  0  0  0  0  0  0  0  0  0  0
   25.7494   11.2203   -4.1335 H   0  0  0  0  0  0  0  0  0  0  0  0
   26.9045   11.7182   -5.4159 H   0  0  0  0  0  0  0  0  0  0  0  0
   25.2288   12.3654   -5.4159 H   0  0  0  0  0  0  0  0  0  0  0  0
  1 11  1  0
  1  2  2  0
  1  6  1  0
  2  8  1  0
  2  3  1  0
  3  4  1  0
  4  5  1  0
  4  7  2  0
  5  6  2  0
  5 12  1  0
  8  9  2  0
  9 10  1  0
 10 19  1  0
 10 11  2  0
 11 21  1  0
 19 20  2  0
 20 21  1  0
 12 13  1  0
 13 14  2  0
 13 18  1  0
 14 15  1  0
 15 22  1  0
 15 16  2  0
 16 17  1  0
 17 18  2  0
 17 23  1  0
  3 24  1  0
  6 25  1  0
  9 26  1  0
 12 27  1  0
 14 28  1  0
 16 29  1  0
 19 30  1  0
 22 31  1  1
 22 32  1  0
 22 33  1  0
 23 34  1  1
 23 35  1  0
 23 36  1  0
M  END
>  <Pose ID>  (83)
154

>  <Score>  (83)
-7.235252857208252

>  <smiles>  (83)
Cc1cc(C)nc(Nc2cc3c(ncc4cnoc43)[nH]c2=O)c1

$$$$

     RDKit          3D

 36 39  0  0  0  0  0  0  0  0999 V2000
   26.5690    6.6070   -8.7800 C   0  0  0  0  0  0  0  0  0  0  0  0
   27.5720    7.2040   -9.5340 N   0  0  0  0  0  0  0  0  0  0  0  0
   25.5180    7.3740   -8.2900 N   0  0  0  0  0  0  0  0  0  0  0  0
   25.4650    8.6730   -8.5610 C   0  0  0  0  0  0  0  0  0  0  0  0
   26.3710    9.4710   -9.2470 C   0  0  0  0  0  0  0  0  0  0  0  0
   27.5230    8.5660   -9.8030 C   0  0  0  0  0  0  0  0  0  0  0  0
   24.3440    9.2440   -7.9700 N   0  0  0  0  0  0  0  0  0  0  0  0
   24.1270   10.6140   -8.0670 C   0  0  0  0  0  0  0  0  0  0  0  0
   25.0340   11.4130   -8.7550 N   0  0  0  0  0  0  0  0  0  0  0  0
   26.1570   10.8560   -9.3430 C   0  0  0  0  0  0  0  0  0  0  0  0
   27.0770   11.6640  -10.0760 C   0  0  0  0  0  0  0  0  0  0  0  0
   27.2570   11.2690  -11.3980 C   0  0  0  0  0  0  0  0  0  0  0  0
   27.8910   12.6510   -9.5310 C   0  0  0  0  0  0  0  0  0  0  0  0
   28.8420   13.1610  -10.2430 C   0  0  0  0  0  0  0  0  0  0  0  0
   29.0810   12.8860  -11.5840 C   0  0  0  0  0  0  0  0  0  0  0  0
   28.2490   11.8560  -12.1720 C   0  0  0  0  0  0  0  0  0  0  0  0
   30.0880   13.5620  -12.2620 C   0  0  0  0  0  0  0  0  0  0  0  0
   30.8570   14.5100  -11.6010 N   0  0  0  0  0  0  0  0  0  0  0  0
   30.6190   14.7860  -10.2590 C   0  0  0  0  0  0  0  0  0  0  0  0
   29.6120   14.1090   -9.5800 C   0  0  0  0  0  0  0  0  0  0  0  0
   27.6850   13.0820   -8.2390 O   0  0  0  0  0  0  0  0  0  0  0  0
   26.8750   14.2600   -8.2720 C   0  0  1  0  0  0  0  0  0  0  0  0
   30.3470   13.2650  -13.7190 C   0  0  1  0  0  0  0  0  0  0  0  0
   26.6065    5.5277   -8.5708 H   0  0  0  0  0  0  0  0  0  0  0  0
   28.3117    9.0200  -10.4210 H   0  0  0  0  0  0  0  0  0  0  0  0
   23.2391   11.0653   -7.6002 H   0  0  0  0  0  0  0  0  0  0  0  0
   26.6120   10.4901  -11.8308 H   0  0  0  0  0  0  0  0  0  0  0  0
   28.4009   11.5438  -13.2158 H   0  0  0  0  0  0  0  0  0  0  0  0
   31.2265   15.5388   -9.7354 H   0  0  0  0  0  0  0  0  0  0  0  0
   29.4248   14.3239   -8.5176 H   0  0  0  0  0  0  0  0  0  0  0  0
   26.6537   14.5818   -7.2436 H   0  0  0  0  0  0  0  0  0  0  0  0
   27.4142   15.0611   -8.7989 H   0  0  0  0  0  0  0  0  0  0  0  0
   25.9340   14.0433   -8.7989 H   0  0  0  0  0  0  0  0  0  0  0  0
   31.0679   12.4383  -13.8022 H   0  0  0  0  0  0  0  0  0  0  0  0
   29.4040   12.9798  -14.2083 H   0  0  0  0  0  0  0  0  0  0  0  0
   30.7578   14.1604  -14.2083 H   0  0  0  0  0  0  0  0  0  0  0  0
 11 12  2  0
 11 13  1  0
 11 10  1  0
 12 16  1  0
 13 14  2  0
 13 21  1  0
 14 15  1  0
 14 20  1  0
 15 17  1  0
 15 16  2  0
 17 23  1  0
 17 18  2  0
 18 19  1  0
 19 20  2  0
  1  2  2  0
  1  3  1  0
  2  6  1  0
  3  4  2  0
  4  5  1  0
  4  7  1  0
  5  6  2  0
  5 10  1  0
  7  8  2  0
  8  9  1  0
  9 10  2  0
 21 22  1  0
  1 24  1  0
  6 25  1  0
  8 26  1  0
 12 27  1  0
 16 28  1  0
 19 29  1  0
 20 30  1  0
 22 31  1  1
 22 32  1  0
 22 33  1  0
 23 34  1  1
 23 35  1  0
 23 36  1  0
M  END
>  <Pose ID>  (84)
22

>  <Score>  (84)
-7.223546981811523

>  <smiles>  (84)
COc1c(-c2ncnc3ncncc23)ccc2c(C)nccc12

$$$$

     RDKit          3D

 29 32  0  0  0  0  0  0  0  0999 V2000
   26.9060    6.9740   -9.0750 C   0  0  0  0  0  0  0  0  0  0  0  0
   28.0140    7.5860   -9.6470 N   0  0  0  0  0  0  0  0  0  0  0  0
   25.7740    7.7250   -8.7780 N   0  0  0  0  0  0  0  0  0  0  0  0
   25.7480    9.0220   -9.0590 C   0  0  0  0  0  0  0  0  0  0  0  0
   26.7450    9.8360   -9.5840 C   0  0  0  0  0  0  0  0  0  0  0  0
   27.9900    8.9480   -9.9280 C   0  0  0  0  0  0  0  0  0  0  0  0
   24.5320    9.5750   -8.6750 N   0  0  0  0  0  0  0  0  0  0  0  0
   24.3140   10.9400   -8.8140 C   0  0  0  0  0  0  0  0  0  0  0  0
   25.3110   11.7530   -9.3390 N   0  0  0  0  0  0  0  0  0  0  0  0
   26.5270   11.2140   -9.7210 C   0  0  0  0  0  0  0  0  0  0  0  0
   27.5480   12.0380  -10.2870 C   0  0  0  0  0  0  0  0  0  0  0  0
   27.9590   11.6410  -11.5560 C   0  0  0  0  0  0  0  0  0  0  0  0
   28.2380   13.0380   -9.6140 C   0  0  0  0  0  0  0  0  0  0  0  0
   29.3400   13.6420  -10.2070 C   0  0  0  0  0  0  0  0  0  0  0  0
   29.7530   13.2470  -11.4750 C   0  0  0  0  0  0  0  0  0  0  0  0
   29.0620   12.2460  -12.1490 C   0  0  0  0  0  0  0  0  0  0  0  0
   30.8290   13.9700  -11.8330 N   0  0  0  0  0  0  0  0  0  0  0  0
   31.0730   14.8050  -10.7810 O   0  0  0  0  0  0  0  0  0  0  0  0
   30.2180   14.6320   -9.8490 C   0  0  0  0  0  0  0  0  0  0  0  0
   29.5080   11.8160  -13.5240 C   0  0  1  0  0  0  0  0  0  0  0  0
   26.9240    5.8959   -8.8571 H   0  0  0  0  0  0  0  0  0  0  0  0
   28.8661    9.4133  -10.4032 H   0  0  0  0  0  0  0  0  0  0  0  0
   23.3520   11.3772   -8.5084 H   0  0  0  0  0  0  0  0  0  0  0  0
   27.4121   10.8496  -12.0894 H   0  0  0  0  0  0  0  0  0  0  0  0
   27.9121   13.3519   -8.6114 H   0  0  0  0  0  0  0  0  0  0  0  0
   30.1900   15.1921   -8.9027 H   0  0  0  0  0  0  0  0  0  0  0  0
   30.2971   11.0552  -13.4323 H   0  0  0  0  0  0  0  0  0  0  0  0
   28.6527   11.3930  -14.0713 H   0  0  0  0  0  0  0  0  0  0  0  0
   29.8995   12.6862  -14.0713 H   0  0  0  0  0  0  0  0  0  0  0  0
  1  2  2  0
  1  3  1  0
  2  6  1  0
  3  4  2  0
  4  5  1  0
  4  7  1  0
  5  6  2  0
  5 10  1  0
  7  8  2  0
  8  9  1  0
  9 10  2  0
 10 11  1  0
 11 12  1  0
 11 13  2  0
 12 16  2  0
 13 14  1  0
 14 15  1  0
 14 19  2  0
 15 16  1  0
 15 17  2  0
 16 20  1  0
 17 18  1  0
 18 19  1  0
  1 21  1  0
  6 22  1  0
  8 23  1  0
 12 24  1  0
 13 25  1  0
 19 26  1  0
 20 27  1  1
 20 28  1  0
 20 29  1  0
M  END
>  <Pose ID>  (85)
15

>  <Score>  (85)
-7.223082065582275

>  <smiles>  (85)
Cc1cc(-c2ncnc3ncncc23)cc2conc12

$$$$

     RDKit          3D

 39 41  0  0  0  0  0  0  0  0999 V2000
   28.3420    9.9400  -11.5260 C   0  0  0  0  0  0  0  0  0  0  0  0
   29.1060    8.7770  -11.5400 C   0  0  0  0  0  0  0  0  0  0  0  0
   28.7180    7.6310  -10.8630 N   0  0  0  0  0  0  0  0  0  0  0  0
   27.5060    7.6240  -10.1840 C   0  0  0  0  0  0  0  0  0  0  0  0
   26.7020    8.7570  -10.1860 C   0  0  0  0  0  0  0  0  0  0  0  0
   27.1010    9.8830  -10.8780 C   0  0  0  0  0  0  0  0  0  0  0  0
   27.1390    6.6050   -9.5800 O   0  0  0  0  0  0  0  0  0  0  0  0
   30.3240    8.7560  -12.2110 N   0  0  0  0  0  0  0  0  0  0  0  0
   30.7740    9.8920  -12.8720 C   0  0  0  0  0  0  0  0  0  0  0  0
   30.0090   11.0530  -12.8590 C   0  0  0  0  0  0  0  0  0  0  0  0
   28.7900   11.0730  -12.1750 C   0  0  0  0  0  0  0  0  0  0  0  0
   25.4910    9.0040   -9.5880 N   0  0  0  0  0  0  0  0  0  0  0  0
   25.3100    8.9180   -8.1080 C   0  0  0  0  0  0  0  0  0  0  0  0
   24.6630    7.8000   -7.5980 C   0  0  0  0  0  0  0  0  0  0  0  0
   24.4640    7.6770   -6.2270 C   0  0  0  0  0  0  0  0  0  0  0  0
   24.9150    8.6730   -5.3690 C   0  0  0  0  0  0  0  0  0  0  0  0
   25.5620    9.7900   -5.8790 C   0  0  0  0  0  0  0  0  0  0  0  0
   25.7600    9.9140   -7.2490 N   0  0  0  0  0  0  0  0  0  0  0  0
   28.0380   12.2150  -12.1470 N   0  0  0  0  0  0  0  0  0  0  0  0
   27.5530   12.8050  -13.4030 C   0  0  1  0  0  0  0  0  0  0  0  0
   28.0310   13.0720  -10.9190 C   0  0  1  0  0  0  0  0  0  0  0  0
   29.2270   14.0000  -10.7290 C   0  0  1  0  0  0  0  0  0  0  0  0
   29.3205    6.7956  -10.8635 H   0  0  0  0  0  0  0  0  0  0  0  0
   26.4304   10.7539  -10.9216 H   0  0  0  0  0  0  0  0  0  0  0  0
   31.7356    9.8730  -13.4057 H   0  0  0  0  0  0  0  0  0  0  0  0
   30.3617   11.9524  -13.3850 H   0  0  0  0  0  0  0  0  0  0  0  0
   24.6843    9.2558  -10.1769 H   0  0  0  0  0  0  0  0  0  0  0  0
   24.3080    7.0118   -8.2783 H   0  0  0  0  0  0  0  0  0  0  0  0
   23.9503    6.7925   -5.8223 H   0  0  0  0  0  0  0  0  0  0  0  0
   24.7590    8.5759   -4.2845 H   0  0  0  0  0  0  0  0  0  0  0  0
   25.9182   10.5775   -5.1985 H   0  0  0  0  0  0  0  0  0  0  0  0
   26.8693   13.6367  -13.1774 H   0  0  0  0  0  0  0  0  0  0  0  0
   28.4072   13.1802  -13.9857 H   0  0  0  0  0  0  0  0  0  0  0  0
   27.0196   12.0396  -13.9857 H   0  0  0  0  0  0  0  0  0  0  0  0
   27.1258   13.6961  -10.9523 H   0  0  0  0  0  0  0  0  0  0  0  0
   28.0709   12.3693  -10.0737 H   0  0  0  0  0  0  0  0  0  0  0  0
   29.4124   14.1438   -9.6543 H   0  0  0  0  0  0  0  0  0  0  0  0
   30.1160   13.5530  -11.1978 H   0  0  0  0  0  0  0  0  0  0  0  0
   29.0149   14.9722  -11.1978 H   0  0  0  0  0  0  0  0  0  0  0  0
  1 11  1  0
  1  2  2  0
  1  6  1  0
  2  8  1  0
  2  3  1  0
  3  4  1  0
  4  5  1  0
  4  7  2  0
  5  6  2  0
  5 12  1  0
  8  9  2  0
  9 10  1  0
 10 11  2  0
 11 19  1  0
 12 13  1  0
 13 14  2  0
 13 18  1  0
 14 15  1  0
 15 16  2  0
 16 17  1  0
 17 18  2  0
 19 20  1  0
 19 21  1  0
 21 22  1  0
  3 23  1  0
  6 24  1  0
  9 25  1  0
 10 26  1  0
 12 27  1  0
 14 28  1  0
 15 29  1  0
 16 30  1  0
 17 31  1  0
 20 32  1  1
 20 33  1  0
 20 34  1  0
 21 35  1  1
 21 36  1  0
 22 37  1  1
 22 38  1  0
 22 39  1  0
M  END
>  <Pose ID>  (86)
160

>  <Score>  (86)
-7.217676639556885

>  <smiles>  (86)
CCN(C)c1ccnc2[nH]c(=O)c(Nc3ccccn3)cc12

$$$$

     RDKit          3D

 37 40  0  0  0  0  0  0  0  0999 V2000
   28.0030    7.8640  -10.3910 C   0  0  0  0  0  0  0  0  0  0  0  0
   28.9760    7.1330  -11.0610 C   0  0  0  0  0  0  0  0  0  0  0  0
   29.8590    7.7720  -11.9220 N   0  0  0  0  0  0  0  0  0  0  0  0
   29.7700    9.1460  -12.1140 C   0  0  0  0  0  0  0  0  0  0  0  0
   27.1620    7.0460   -9.5200 O   0  0  0  0  0  0  0  0  0  0  0  0
   28.7950    9.8790  -11.4440 C   0  0  0  0  0  0  0  0  0  0  0  0
   27.9130    9.2370  -10.5820 C   0  0  0  0  0  0  0  0  0  0  0  0
   30.4970    9.9790  -12.8820 N   0  0  0  0  0  0  0  0  0  0  0  0
   30.0740   11.1500  -12.7590 C   0  0  0  0  0  0  0  0  0  0  0  0
   29.0200   11.1510  -11.8550 C   0  0  0  0  0  0  0  0  0  0  0  0
   26.3200    7.5640   -8.5310 C   0  0  0  0  0  0  0  0  0  0  0  0
   25.5300    8.6480   -8.8790 N   0  0  0  0  0  0  0  0  0  0  0  0
   24.8030    9.0210   -7.7630 N   0  0  0  0  0  0  0  0  0  0  0  0
   25.1160    8.1930   -6.7570 C   0  0  0  0  0  0  0  0  0  0  0  0
   26.0110    7.3070   -7.2060 C   0  0  0  0  0  0  0  0  0  0  0  0
   23.8850   10.1300   -7.8160 C   0  0  1  0  0  0  0  0  0  0  0  0
   30.4810   12.3370  -13.3560 C   0  0  0  0  0  0  0  0  0  0  0  0
   29.8330   13.5270  -13.0470 C   0  0  0  0  0  0  0  0  0  0  0  0
   28.7780   13.5290  -12.1410 N   0  0  0  0  0  0  0  0  0  0  0  0
   28.3390   12.3600  -11.5520 C   0  0  0  0  0  0  0  0  0  0  0  0
   24.4310   11.2920   -6.9490 C   0  0  1  0  0  0  0  0  0  0  0  0
   24.5550    8.2510   -5.3570 C   0  0  1  0  0  0  0  0  0  0  0  0
   29.0473    6.0458  -10.9093 H   0  0  0  0  0  0  0  0  0  0  0  0
   30.5794    7.2281  -12.4180 H   0  0  0  0  0  0  0  0  0  0  0  0
   27.1435    9.8166  -10.0510 H   0  0  0  0  0  0  0  0  0  0  0  0
   26.4408    6.4900   -6.6078 H   0  0  0  0  0  0  0  0  0  0  0  0
   23.7776   10.4681   -8.8572 H   0  0  0  0  0  0  0  0  0  0  0  0
   22.9043    9.8138   -7.4310 H   0  0  0  0  0  0  0  0  0  0  0  0
   31.3155   12.3347  -14.0727 H   0  0  0  0  0  0  0  0  0  0  0  0
   30.1546   14.4671  -13.5190 H   0  0  0  0  0  0  0  0  0  0  0  0
   27.4811   12.3649  -10.8635 H   0  0  0  0  0  0  0  0  0  0  0  0
   24.3134   11.0417   -5.8843 H   0  0  0  0  0  0  0  0  0  0  0  0
   25.4965   11.4477   -7.1735 H   0  0  0  0  0  0  0  0  0  0  0  0
   23.8708   12.2116   -7.1735 H   0  0  0  0  0  0  0  0  0  0  0  0
   25.3756    8.1662   -4.6294 H   0  0  0  0  0  0  0  0  0  0  0  0
   24.0326    9.2079   -5.2107 H   0  0  0  0  0  0  0  0  0  0  0  0
   23.8479    7.4212   -5.2107 H   0  0  0  0  0  0  0  0  0  0  0  0
  1  2  2  0
  1  7  1  0
  1  5  1  0
  2  3  1  0
  3  4  1  0
  4  8  2  0
  4  6  1  0
  6 10  1  0
  6  7  2  0
  8  9  1  0
  9 17  1  0
  9 10  2  0
 10 20  1  0
 17 18  2  0
 18 19  1  0
 19 20  2  0
  5 11  1  0
 11 12  2  0
 11 15  1  0
 12 13  1  0
 13 16  1  0
 13 14  1  0
 14 15  2  0
 14 22  1  0
 16 21  1  0
  2 23  1  0
  3 24  1  0
  7 25  1  0
 15 26  1  0
 16 27  1  6
 16 28  1  0
 17 29  1  0
 18 30  1  0
 20 31  1  0
 21 32  1  1
 21 33  1  0
 21 34  1  0
 22 35  1  1
 22 36  1  0
 22 37  1  0
M  END
>  <Pose ID>  (87)
528

>  <Score>  (87)
-7.178062915802002

>  <smiles>  (87)
CCn1nc(Oc2c[nH]c3nc4ccncc4c-3c2)cc1C

$$$$

     RDKit          3D

 34 37  0  0  0  0  0  0  0  0999 V2000
   28.0290    7.8910  -10.3530 C   0  0  0  0  0  0  0  0  0  0  0  0
   29.0110    7.1480  -10.9960 C   0  0  0  0  0  0  0  0  0  0  0  0
   29.8930    7.7700  -11.8710 N   0  0  0  0  0  0  0  0  0  0  0  0
   29.7940    9.1370  -12.1040 C   0  0  0  0  0  0  0  0  0  0  0  0
   27.1890    7.0930   -9.4610 O   0  0  0  0  0  0  0  0  0  0  0  0
   28.8110    9.8810  -11.4600 C   0  0  0  0  0  0  0  0  0  0  0  0
   27.9300    9.2570  -10.5840 C   0  0  0  0  0  0  0  0  0  0  0  0
   30.5180    9.9530  -12.8930 N   0  0  0  0  0  0  0  0  0  0  0  0
   30.0860   11.1220  -12.8060 C   0  0  0  0  0  0  0  0  0  0  0  0
   29.0270   11.1430  -11.9060 C   0  0  0  0  0  0  0  0  0  0  0  0
   26.3390    7.6330   -8.4920 C   0  0  0  0  0  0  0  0  0  0  0  0
   25.5420    8.7000   -8.8760 N   0  0  0  0  0  0  0  0  0  0  0  0
   24.8070    9.0990   -7.7750 N   0  0  0  0  0  0  0  0  0  0  0  0
   25.1220    8.3030   -6.7430 C   0  0  0  0  0  0  0  0  0  0  0  0
   26.0260    7.4110   -7.1630 C   0  0  0  0  0  0  0  0  0  0  0  0
   23.8810   10.1990   -7.8640 C   0  0  1  0  0  0  0  0  0  0  0  0
   30.4870   12.2960  -13.4350 C   0  0  0  0  0  0  0  0  0  0  0  0
   29.8270   13.4890  -13.1650 C   0  0  0  0  0  0  0  0  0  0  0  0
   28.7680   13.5090  -12.2640 N   0  0  0  0  0  0  0  0  0  0  0  0
   28.3360   12.3550  -11.6430 C   0  0  0  0  0  0  0  0  0  0  0  0
   24.4610   11.6620   -8.2690 C   0  0  1  0  0  0  0  0  0  0  0  0
   29.0904    6.0664  -10.8123 H   0  0  0  0  0  0  0  0  0  0  0  0
   30.6206    7.2180  -12.3473 H   0  0  0  0  0  0  0  0  0  0  0  0
   27.1537    9.8457  -10.0733 H   0  0  0  0  0  0  0  0  0  0  0  0
   24.7083    8.3717   -5.7261 H   0  0  0  0  0  0  0  0  0  0  0  0
   26.4589    6.6143   -6.5402 H   0  0  0  0  0  0  0  0  0  0  0  0
   23.1250    9.9286   -8.6159 H   0  0  0  0  0  0  0  0  0  0  0  0
   23.5121   10.3278   -6.8357 H   0  0  0  0  0  0  0  0  0  0  0  0
   31.3262   12.2803  -14.1459 H   0  0  0  0  0  0  0  0  0  0  0  0
   30.1423   14.4172  -13.6640 H   0  0  0  0  0  0  0  0  0  0  0  0
   27.4748   12.3737  -10.9589 H   0  0  0  0  0  0  0  0  0  0  0  0
   24.6871   12.2324   -7.3560 H   0  0  0  0  0  0  0  0  0  0  0  0
   25.3792   11.5410   -8.8626 H   0  0  0  0  0  0  0  0  0  0  0  0
   23.7093   12.2030   -8.8626 H   0  0  0  0  0  0  0  0  0  0  0  0
  1  2  2  0
  1  7  1  0
  1  5  1  0
  2  3  1  0
  3  4  1  0
  4  8  2  0
  4  6  1  0
  6 10  1  0
  6  7  2  0
  8  9  1  0
  9 17  1  0
  9 10  2  0
 10 20  1  0
 17 18  2  0
 18 19  1  0
 19 20  2  0
  5 11  1  0
 11 12  2  0
 11 15  1  0
 12 13  1  0
 13 16  1  0
 13 14  1  0
 14 15  2  0
 16 21  1  0
  2 22  1  0
  3 23  1  0
  7 24  1  0
 14 25  1  0
 15 26  1  0
 16 27  1  6
 16 28  1  0
 17 29  1  0
 18 30  1  0
 20 31  1  0
 21 32  1  1
 21 33  1  0
 21 34  1  0
M  END
>  <Pose ID>  (88)
520

>  <Score>  (88)
-7.175485610961914

>  <smiles>  (88)
CCn1ccc(Oc2c[nH]c3nc4ccncc4c-3c2)n1

$$$$

     RDKit          3D

 39 42  0  0  0  0  0  0  0  0999 V2000
   27.3960    7.9740  -10.1460 C   0  0  0  0  0  0  0  0  0  0  0  0
   28.4860    7.1880  -10.4850 C   0  0  0  0  0  0  0  0  0  0  0  0
   29.4850    7.7030  -11.3040 N   0  0  0  0  0  0  0  0  0  0  0  0
   26.5770    7.2710   -9.3460 N   0  0  0  0  0  0  0  0  0  0  0  0
   29.3910    9.0040  -11.7810 C   0  0  0  0  0  0  0  0  0  0  0  0
   28.2980    9.7900  -11.4420 C   0  0  0  0  0  0  0  0  0  0  0  0
   27.3000    9.2790  -10.6230 C   0  0  0  0  0  0  0  0  0  0  0  0
   30.2170    9.7110  -12.5730 N   0  0  0  0  0  0  0  0  0  0  0  0
   29.6790   10.9640  -12.7630 C   0  0  0  0  0  0  0  0  0  0  0  0
   28.4920   10.8510  -12.0100 C   0  0  0  0  0  0  0  0  0  0  0  0
   26.0030    7.8070   -8.1540 C   0  0  0  0  0  0  0  0  0  0  0  0
   25.3420    6.9400   -7.2920 N   0  0  0  0  0  0  0  0  0  0  0  0
   24.6690    7.4390   -6.1830 C   0  0  0  0  0  0  0  0  0  0  0  0
   24.6580    8.8070   -5.9370 C   0  0  0  0  0  0  0  0  0  0  0  0
   25.3190    9.6760   -6.7980 C   0  0  0  0  0  0  0  0  0  0  0  0
   26.0170    9.1700   -7.8910 C   0  0  0  0  0  0  0  0  0  0  0  0
   23.9410    6.7870   -5.1850 C   0  0  0  0  0  0  0  0  0  0  0  0
   23.6200    7.7610   -4.2640 N   0  0  0  0  0  0  0  0  0  0  0  0
   24.0330    8.9430   -4.5880 C   0  0  0  0  0  0  0  0  0  0  0  0
   25.2790   11.1640   -6.5500 C   0  0  1  0  0  0  0  0  0  0  0  0
   26.6250   11.5510   -5.9870 C   0  0  1  0  0  0  0  0  0  0  0  0
   30.2110   12.1330  -13.5560 C   0  0  1  0  0  0  0  0  0  0  0  0
   28.5609    6.1578  -10.1066 H   0  0  0  0  0  0  0  0  0  0  0  0
   30.2951    7.1193  -11.5570 H   0  0  0  0  0  0  0  0  0  0  0  0
   26.3527    6.2996   -9.6049 H   0  0  0  0  0  0  0  0  0  0  0  0
   26.4359    9.9032  -10.3516 H   0  0  0  0  0  0  0  0  0  0  0  0
   27.7745   11.6817  -11.9385 H   0  0  0  0  0  0  0  0  0  0  0  0
   25.3509    5.9265   -7.4752 H   0  0  0  0  0  0  0  0  0  0  0  0
   26.5800    9.8506   -8.5467 H   0  0  0  0  0  0  0  0  0  0  0  0
   23.6787    5.7196   -5.1429 H   0  0  0  0  0  0  0  0  0  0  0  0
   23.9422    9.8622   -3.9907 H   0  0  0  0  0  0  0  0  0  0  0  0
   25.0951   11.6998   -7.4929 H   0  0  0  0  0  0  0  0  0  0  0  0
   24.4702   11.4252   -5.8516 H   0  0  0  0  0  0  0  0  0  0  0  0
   26.5802   11.5381   -4.8880 H   0  0  0  0  0  0  0  0  0  0  0  0
   27.3860   10.8353   -6.3314 H   0  0  0  0  0  0  0  0  0  0  0  0
   26.8897   12.5616   -6.3314 H   0  0  0  0  0  0  0  0  0  0  0  0
   30.5659   12.9129  -12.8662 H   0  0  0  0  0  0  0  0  0  0  0  0
   31.0449   11.7970  -14.1899 H   0  0  0  0  0  0  0  0  0  0  0  0
   29.4099   12.5410  -14.1899 H   0  0  0  0  0  0  0  0  0  0  0  0
  4  1  1  0
  4 11  1  0
  1  7  1  0
  1  2  2  0
  2  3  1  0
  3  5  1  0
  5  8  2  0
  5  6  1  0
  6 10  1  0
  6  7  2  0
  8  9  1  0
  9 22  1  0
  9 10  2  0
 11 16  2  0
 11 12  1  0
 12 13  1  0
 13 14  1  0
 13 17  2  0
 14 15  2  0
 14 19  1  0
 15 16  1  0
 15 20  1  0
 17 18  1  0
 18 19  2  0
 20 21  1  0
  2 23  1  0
  3 24  1  0
  4 25  1  0
  7 26  1  0
 10 27  1  0
 12 28  1  0
 16 29  1  0
 17 30  1  0
 19 31  1  0
 20 32  1  6
 20 33  1  0
 21 34  1  1
 21 35  1  0
 21 36  1  0
 22 37  1  1
 22 38  1  0
 22 39  1  0
M  END
>  <Pose ID>  (89)
87

>  <Score>  (89)
-7.161221027374268

>  <smiles>  (89)
CCc1cc(Nc2c[nH]c3nc(C)cc-3c2)[nH]c2cncc1-2

$$$$

     RDKit          3D

 37 40  0  0  0  0  0  0  0  0999 V2000
   27.1980    8.5710  -10.2900 C   0  0  0  0  0  0  0  0  0  0  0  0
   28.0070    7.5190  -10.6960 C   0  0  0  0  0  0  0  0  0  0  0  0
   29.1080    7.7600  -11.5100 N   0  0  0  0  0  0  0  0  0  0  0  0
   29.4000    9.0560  -11.9160 C   0  0  0  0  0  0  0  0  0  0  0  0
   26.0900    8.1530   -9.4330 O   0  0  0  0  0  0  0  0  0  0  0  0
   28.5890   10.1110  -11.5100 C   0  0  0  0  0  0  0  0  0  0  0  0
   27.4900    9.8670  -10.6960 C   0  0  0  0  0  0  0  0  0  0  0  0
   30.3920    9.5360  -12.6910 N   0  0  0  0  0  0  0  0  0  0  0  0
   30.2250   10.7820  -12.7660 C   0  0  0  0  0  0  0  0  0  0  0  0
   29.1240   11.2950  -12.0900 C   0  0  0  0  0  0  0  0  0  0  0  0
   25.3200    9.0290   -8.6640 C   0  0  0  0  0  0  0  0  0  0  0  0
   24.8790   10.1900   -9.2790 N   0  0  0  0  0  0  0  0  0  0  0  0
   24.1660   10.9220   -8.3490 N   0  0  0  0  0  0  0  0  0  0  0  0
   24.1520   10.2380   -7.1950 C   0  0  0  0  0  0  0  0  0  0  0  0
   24.8230    9.0970   -7.3720 C   0  0  0  0  0  0  0  0  0  0  0  0
   23.5790   12.1910   -8.6960 C   0  0  1  0  0  0  0  0  0  0  0  0
   31.0530   11.6320  -13.4910 C   0  0  0  0  0  0  0  0  0  0  0  0
   30.7810   12.9930  -13.5390 C   0  0  0  0  0  0  0  0  0  0  0  0
   29.6780   13.5060  -12.8640 N   0  0  0  0  0  0  0  0  0  0  0  0
   28.8520   12.6570  -12.1400 C   0  0  0  0  0  0  0  0  0  0  0  0
   25.0150    8.0360   -6.3170 C   0  0  1  0  0  0  0  0  0  0  0  0
   23.4900   10.6820   -5.9140 C   0  0  1  0  0  0  0  0  0  0  0  0
   27.7768    6.4929  -10.3733 H   0  0  0  0  0  0  0  0  0  0  0  0
   29.7068    6.9781  -11.8118 H   0  0  0  0  0  0  0  0  0  0  0  0
   26.8501   10.7012  -10.3725 H   0  0  0  0  0  0  0  0  0  0  0  0
   23.3247   12.7407   -7.7778 H   0  0  0  0  0  0  0  0  0  0  0  0
   24.2972   12.7777   -9.2876 H   0  0  0  0  0  0  0  0  0  0  0  0
   22.6669   12.0236   -9.2876 H   0  0  0  0  0  0  0  0  0  0  0  0
   31.9238   11.2262  -14.0267 H   0  0  0  0  0  0  0  0  0  0  0  0
   31.4376   13.6653  -14.1107 H   0  0  0  0  0  0  0  0  0  0  0  0
   27.9808   13.0630  -11.6050 H   0  0  0  0  0  0  0  0  0  0  0  0
   24.9325    8.4918   -5.3193 H   0  0  0  0  0  0  0  0  0  0  0  0
   24.2425    7.2613   -6.4312 H   0  0  0  0  0  0  0  0  0  0  0  0
   26.0100    7.5812   -6.4312 H   0  0  0  0  0  0  0  0  0  0  0  0
   24.0604   10.2994   -5.0548 H   0  0  0  0  0  0  0  0  0  0  0  0
   23.4638   11.7811   -5.8766 H   0  0  0  0  0  0  0  0  0  0  0  0
   22.4632   10.2892   -5.8766 H   0  0  0  0  0  0  0  0  0  0  0  0
  1  2  2  0
  1  7  1  0
  1  5  1  0
  2  3  1  0
  3  4  1  0
  4  8  2  0
  4  6  1  0
  6 10  1  0
  6  7  2  0
  8  9  1  0
  9 17  1  0
  9 10  2  0
 10 20  1  0
 17 18  2  0
 18 19  1  0
 19 20  2  0
  5 11  1  0
 11 12  2  0
 11 15  1  0
 12 13  1  0
 13 16  1  0
 13 14  1  0
 14 15  2  0
 14 22  1  0
 15 21  1  0
  2 23  1  0
  3 24  1  0
  7 25  1  0
 16 26  1  1
 16 27  1  0
 16 28  1  0
 17 29  1  0
 18 30  1  0
 20 31  1  0
 21 32  1  1
 21 33  1  0
 21 34  1  0
 22 35  1  1
 22 36  1  0
 22 37  1  0
M  END
>  <Pose ID>  (90)
537

>  <Score>  (90)
-7.159637928009033

>  <smiles>  (90)
Cc1c(Oc2c[nH]c3nc4ccncc4c-3c2)nn(C)c1C

$$$$

     RDKit          3D

 38 41  0  0  0  0  0  0  0  0999 V2000
   27.3500    8.0210  -10.2350 C   0  0  0  0  0  0  0  0  0  0  0  0
   28.3620    7.2010  -10.7080 C   0  0  0  0  0  0  0  0  0  0  0  0
   29.3620    7.7280  -11.5170 N   0  0  0  0  0  0  0  0  0  0  0  0
   26.5130    7.2970   -9.4750 N   0  0  0  0  0  0  0  0  0  0  0  0
   29.3510    9.0780  -11.8470 C   0  0  0  0  0  0  0  0  0  0  0  0
   28.3360    9.8990  -11.3710 C   0  0  0  0  0  0  0  0  0  0  0  0
   27.3370    9.3740  -10.5650 C   0  0  0  0  0  0  0  0  0  0  0  0
   30.1940    9.8060  -12.5970 N   0  0  0  0  0  0  0  0  0  0  0  0
   29.7550   11.0690  -12.6170 C   0  0  0  0  0  0  0  0  0  0  0  0
   28.5860   11.1210  -11.8670 C   0  0  0  0  0  0  0  0  0  0  0  0
   26.0320    7.7370   -8.2050 C   0  0  0  0  0  0  0  0  0  0  0  0
   25.3410    6.8300   -7.4100 N   0  0  0  0  0  0  0  0  0  0  0  0
   24.7530    7.2510   -6.2230 C   0  0  0  0  0  0  0  0  0  0  0  0
   24.8590    8.5820   -5.8300 C   0  0  0  0  0  0  0  0  0  0  0  0
   25.5500    9.4900   -6.6260 C   0  0  0  0  0  0  0  0  0  0  0  0
   26.1610    9.0580   -7.7990 C   0  0  0  0  0  0  0  0  0  0  0  0
   24.1370    6.4390   -5.5120 O   0  0  0  0  0  0  0  0  0  0  0  0
   30.2380   12.2180  -13.2320 C   0  0  0  0  0  0  0  0  0  0  0  0
   29.5510   13.4200  -13.0980 N   0  0  0  0  0  0  0  0  0  0  0  0
   28.3830   13.4710  -12.3480 C   0  0  0  0  0  0  0  0  0  0  0  0
   27.9000   12.3230  -11.7320 C   0  0  0  0  0  0  0  0  0  0  0  0
   25.6380   10.9400   -6.2180 C   0  0  1  0  0  0  0  0  0  0  0  0
   26.6300   12.3800  -10.9180 C   0  0  1  0  0  0  0  0  0  0  0  0
   28.3740    6.1334  -10.4434 H   0  0  0  0  0  0  0  0  0  0  0  0
   30.1117    7.1175  -11.8722 H   0  0  0  0  0  0  0  0  0  0  0  0
   26.2028    6.3794   -9.8253 H   0  0  0  0  0  0  0  0  0  0  0  0
   26.5353   10.0254  -10.1868 H   0  0  0  0  0  0  0  0  0  0  0  0
   25.2646    5.8449   -7.7008 H   0  0  0  0  0  0  0  0  0  0  0  0
   24.3962    8.9161   -4.8897 H   0  0  0  0  0  0  0  0  0  0  0  0
   26.7470    9.7643   -8.4054 H   0  0  0  0  0  0  0  0  0  0  0  0
   31.1637   12.1768  -13.8248 H   0  0  0  0  0  0  0  0  0  0  0  0
   27.8397   14.4215  -12.2416 H   0  0  0  0  0  0  0  0  0  0  0  0
   25.6424   11.0124   -5.1204 H   0  0  0  0  0  0  0  0  0  0  0  0
   26.5644   11.3779   -6.6181 H   0  0  0  0  0  0  0  0  0  0  0  0
   24.7714   11.4867   -6.6181 H   0  0  0  0  0  0  0  0  0  0  0  0
   26.8802   12.3688   -9.8469 H   0  0  0  0  0  0  0  0  0  0  0  0
   26.0825   13.3036  -11.1570 H   0  0  0  0  0  0  0  0  0  0  0  0
   26.0019   11.5091  -11.1570 H   0  0  0  0  0  0  0  0  0  0  0  0
  1  2  2  0
  1  7  1  0
  1  4  1  0
  2  3  1  0
  3  5  1  0
  5  8  2  0
  5  6  1  0
  6 10  1  0
  6  7  2  0
  8  9  1  0
  9 18  1  0
  9 10  2  0
 10 21  1  0
 18 19  2  0
 19 20  1  0
 20 21  2  0
 21 23  1  0
  4 11  1  0
 11 16  2  0
 11 12  1  0
 12 13  1  0
 13 14  1  0
 13 17  2  0
 14 15  2  0
 15 16  1  0
 15 22  1  0
  2 24  1  0
  3 25  1  0
  4 26  1  0
  7 27  1  0
 12 28  1  0
 14 29  1  0
 16 30  1  0
 18 31  1  0
 20 32  1  0
 22 33  1  1
 22 34  1  0
 22 35  1  0
 23 36  1  1
 23 37  1  0
 23 38  1  0
M  END
>  <Pose ID>  (91)
120

>  <Score>  (91)
-7.1587934494018555

>  <smiles>  (91)
Cc1cc(Nc2c[nH]c3nc4cncc(C)c4c-3c2)[nH]c(=O)c1

$$$$

     RDKit          3D

 32 34  0  0  0  0  0  0  0  0999 V2000
   28.2900    9.9170  -11.5600 C   0  0  0  0  0  0  0  0  0  0  0  0
   29.0720    8.7690  -11.4970 C   0  0  0  0  0  0  0  0  0  0  0  0
   28.6970    7.6600  -10.7530 N   0  0  0  0  0  0  0  0  0  0  0  0
   27.4800    7.6770  -10.0810 C   0  0  0  0  0  0  0  0  0  0  0  0
   26.6590    8.7960  -10.1580 C   0  0  0  0  0  0  0  0  0  0  0  0
   27.0460    9.8820  -10.9180 C   0  0  0  0  0  0  0  0  0  0  0  0
   27.1250    6.6910   -9.4160 O   0  0  0  0  0  0  0  0  0  0  0  0
   30.2940    8.7250  -12.1600 N   0  0  0  0  0  0  0  0  0  0  0  0
   30.7310    9.8250  -12.8870 C   0  0  0  0  0  0  0  0  0  0  0  0
   29.9480   10.9710  -12.9500 C   0  0  0  0  0  0  0  0  0  0  0  0
   28.7240   11.0140  -12.2750 C   0  0  0  0  0  0  0  0  0  0  0  0
   25.4400    9.0590   -9.5840 N   0  0  0  0  0  0  0  0  0  0  0  0
   25.2440    9.0570   -8.1130 C   0  0  0  0  0  0  0  0  0  0  0  0
   24.6160    7.9630   -7.5280 C   0  0  0  0  0  0  0  0  0  0  0  0
   24.4180    7.9270   -6.1540 C   0  0  0  0  0  0  0  0  0  0  0  0
   24.8470    8.9860   -5.3620 C   0  0  0  0  0  0  0  0  0  0  0  0
   25.4740   10.0800   -5.9460 C   0  0  0  0  0  0  0  0  0  0  0  0
   25.6730   10.1160   -7.3210 C   0  0  0  0  0  0  0  0  0  0  0  0
   27.8780   12.2620  -12.3280 C   0  0  1  0  0  0  0  0  0  0  0  0
   29.3117    6.8353  -10.6991 H   0  0  0  0  0  0  0  0  0  0  0  0
   26.3626   10.7378  -11.0213 H   0  0  0  0  0  0  0  0  0  0  0  0
   31.6966    9.7888  -13.4126 H   0  0  0  0  0  0  0  0  0  0  0  0
   30.2898   11.8417  -13.5289 H   0  0  0  0  0  0  0  0  0  0  0  0
   24.6357    9.2643  -10.1938 H   0  0  0  0  0  0  0  0  0  0  0  0
   24.2757    7.1252   -8.1543 H   0  0  0  0  0  0  0  0  0  0  0  0
   23.9218    7.0606   -5.6923 H   0  0  0  0  0  0  0  0  0  0  0  0
   24.6902    8.9579   -4.2736 H   0  0  0  0  0  0  0  0  0  0  0  0
   25.8131   10.9182   -5.3195 H   0  0  0  0  0  0  0  0  0  0  0  0
   26.1698   10.9821   -7.7825 H   0  0  0  0  0  0  0  0  0  0  0  0
   27.6519   12.5955  -11.3044 H   0  0  0  0  0  0  0  0  0  0  0  0
   28.4260   13.0542  -12.8591 H   0  0  0  0  0  0  0  0  0  0  0  0
   26.9392   12.0463  -12.8591 H   0  0  0  0  0  0  0  0  0  0  0  0
  1 11  1  0
  1  2  2  0
  1  6  1  0
  2  8  1  0
  2  3  1  0
  3  4  1  0
  4  5  1  0
  4  7  2  0
  5  6  2  0
  5 12  1  0
  8  9  2  0
  9 10  1  0
 10 11  2  0
 11 19  1  0
 12 13  1  0
 13 14  2  0
 13 18  1  0
 14 15  1  0
 15 16  2  0
 16 17  1  0
 17 18  2  0
  3 20  1  0
  6 21  1  0
  9 22  1  0
 10 23  1  0
 12 24  1  0
 14 25  1  0
 15 26  1  0
 16 27  1  0
 17 28  1  0
 18 29  1  0
 19 30  1  1
 19 31  1  0
 19 32  1  0
M  END
>  <Pose ID>  (92)
181

>  <Score>  (92)
-7.143760681152344

>  <smiles>  (92)
Cc1ccnc2[nH]c(=O)c(Nc3ccccc3)cc12

$$$$

     RDKit          3D

 37 40  0  0  0  0  0  0  0  0999 V2000
   27.1440    8.4540  -10.2160 C   0  0  0  0  0  0  0  0  0  0  0  0
   27.9460    7.4120  -10.6610 C   0  0  0  0  0  0  0  0  0  0  0  0
   29.0320    7.6730  -11.4910 N   0  0  0  0  0  0  0  0  0  0  0  0
   29.3150    8.9790  -11.8740 C   0  0  0  0  0  0  0  0  0  0  0  0
   26.0540    8.0160   -9.3490 O   0  0  0  0  0  0  0  0  0  0  0  0
   28.5110   10.0230  -11.4270 C   0  0  0  0  0  0  0  0  0  0  0  0
   27.4270    9.7600  -10.5980 C   0  0  0  0  0  0  0  0  0  0  0  0
   30.2910    9.4770  -12.6550 N   0  0  0  0  0  0  0  0  0  0  0  0
   30.1710   10.7300  -12.7390 C   0  0  0  0  0  0  0  0  0  0  0  0
   29.0600   11.1210  -12.0030 C   0  0  0  0  0  0  0  0  0  0  0  0
   25.2980    8.8740   -8.5450 C   0  0  0  0  0  0  0  0  0  0  0  0
   24.8440   10.0470   -9.1260 N   0  0  0  0  0  0  0  0  0  0  0  0
   24.1480   10.7570   -8.1640 N   0  0  0  0  0  0  0  0  0  0  0  0
   24.1570   10.0500   -7.0260 C   0  0  0  0  0  0  0  0  0  0  0  0
   24.8260    8.9120   -7.2450 C   0  0  0  0  0  0  0  0  0  0  0  0
   23.5550   12.0340   -8.4730 C   0  0  1  0  0  0  0  0  0  0  0  0
   30.9240   11.6800  -13.4180 C   0  0  0  0  0  0  0  0  0  0  0  0
   30.5630   13.0200  -13.3650 C   0  0  0  0  0  0  0  0  0  0  0  0
   29.4510   13.4120  -12.6310 C   0  0  0  0  0  0  0  0  0  0  0  0
   28.6990   12.4620  -11.9480 N   0  0  0  0  0  0  0  0  0  0  0  0
   24.5320   13.2380   -8.9610 C   0  0  1  0  0  0  0  0  0  0  0  0
   25.0370    7.8250   -6.2200 C   0  0  1  0  0  0  0  0  0  0  0  0
   27.7228    6.3786  -10.3571 H   0  0  0  0  0  0  0  0  0  0  0  0
   29.6258    6.8990  -11.8214 H   0  0  0  0  0  0  0  0  0  0  0  0
   26.7926   10.5860  -10.2440 H   0  0  0  0  0  0  0  0  0  0  0  0
   23.6941   10.3529   -6.0752 H   0  0  0  0  0  0  0  0  0  0  0  0
   22.8193   11.8666   -9.2734 H   0  0  0  0  0  0  0  0  0  0  0  0
   23.1494   12.3851   -7.5127 H   0  0  0  0  0  0  0  0  0  0  0  0
   31.8062   11.3707  -13.9976 H   0  0  0  0  0  0  0  0  0  0  0  0
   31.1581   13.7714  -13.9047 H   0  0  0  0  0  0  0  0  0  0  0  0
   29.1651   14.4734  -12.5898 H   0  0  0  0  0  0  0  0  0  0  0  0
   24.9486   13.7513   -8.0818 H   0  0  0  0  0  0  0  0  0  0  0  0
   25.3517   12.8228   -9.5657 H   0  0  0  0  0  0  0  0  0  0  0  0
   23.9569   13.9546   -9.5657 H   0  0  0  0  0  0  0  0  0  0  0  0
   24.9540    8.2525   -5.2099 H   0  0  0  0  0  0  0  0  0  0  0  0
   24.2737    7.0439   -6.3515 H   0  0  0  0  0  0  0  0  0  0  0  0
   26.0371    7.3862   -6.3515 H   0  0  0  0  0  0  0  0  0  0  0  0
  1  2  2  0
  1  7  1  0
  1  5  1  0
  2  3  1  0
  3  4  1  0
  4  8  2  0
  4  6  1  0
  6 10  1  0
  6  7  2  0
  8  9  1  0
  9 17  1  0
  9 10  2  0
 10 20  1  0
 17 18  2  0
 18 19  1  0
 19 20  2  0
  5 11  1  0
 11 12  2  0
 11 15  1  0
 12 13  1  0
 13 16  1  0
 13 14  1  0
 14 15  2  0
 15 22  1  0
 16 21  1  0
  2 23  1  0
  3 24  1  0
  7 25  1  0
 14 26  1  0
 16 27  1  6
 16 28  1  0
 17 29  1  0
 18 30  1  0
 19 31  1  0
 21 32  1  1
 21 33  1  0
 21 34  1  0
 22 35  1  1
 22 36  1  0
 22 37  1  0
M  END
>  <Pose ID>  (93)
515

>  <Score>  (93)
-7.136643886566162

>  <smiles>  (93)
CCn1cc(C)c(Oc2c[nH]c3nc4cccnc4c-3c2)n1

$$$$

     RDKit          3D

 33 36  0  0  0  0  0  0  0  0999 V2000
   28.4070   10.0260  -11.5340 C   0  0  0  0  0  0  0  0  0  0  0  0
   29.1380    8.8430  -11.5010 C   0  0  0  0  0  0  0  0  0  0  0  0
   28.7160    7.7320  -10.7850 N   0  0  0  0  0  0  0  0  0  0  0  0
   27.5000    7.7840  -10.1120 C   0  0  0  0  0  0  0  0  0  0  0  0
   26.7280    8.9400  -10.1600 C   0  0  0  0  0  0  0  0  0  0  0  0
   27.1620   10.0270  -10.8920 C   0  0  0  0  0  0  0  0  0  0  0  0
   27.1030    6.7990   -9.4720 O   0  0  0  0  0  0  0  0  0  0  0  0
   30.3580    8.7630  -12.1650 N   0  0  0  0  0  0  0  0  0  0  0  0
   30.8420    9.8610  -12.8630 C   0  0  0  0  0  0  0  0  0  0  0  0
   30.1090   11.0420  -12.8970 C   0  0  0  0  0  0  0  0  0  0  0  0
   28.8870   11.1210  -12.2210 C   0  0  0  0  0  0  0  0  0  0  0  0
   25.5210    9.2400   -9.5790 N   0  0  0  0  0  0  0  0  0  0  0  0
   25.3320    9.2140   -8.0960 C   0  0  0  0  0  0  0  0  0  0  0  0
   24.6520    8.1330   -7.5510 C   0  0  0  0  0  0  0  0  0  0  0  0
   24.4440    8.0660   -6.1760 C   0  0  0  0  0  0  0  0  0  0  0  0
   24.9180    9.0800   -5.3530 C   0  0  0  0  0  0  0  0  0  0  0  0
   25.5980   10.1610   -5.9000 C   0  0  0  0  0  0  0  0  0  0  0  0
   25.8050   10.2290   -7.2730 N   0  0  0  0  0  0  0  0  0  0  0  0
   30.3710   12.2720  -13.5280 C   0  0  0  0  0  0  0  0  0  0  0  0
   29.3530   13.1660  -13.1980 N   0  0  0  0  0  0  0  0  0  0  0  0
   28.5510   12.4930  -12.3630 O   0  0  0  0  0  0  0  0  0  0  0  0
   23.7050    6.8930   -5.5800 C   0  0  1  0  0  0  0  0  0  0  0  0
   29.2951    6.8808  -10.7523 H   0  0  0  0  0  0  0  0  0  0  0  0
   26.5159   10.9135  -10.9729 H   0  0  0  0  0  0  0  0  0  0  0  0
   31.8057    9.7967  -13.3894 H   0  0  0  0  0  0  0  0  0  0  0  0
   24.7236    9.4899  -10.1812 H   0  0  0  0  0  0  0  0  0  0  0  0
   24.2783    7.3309   -8.2045 H   0  0  0  0  0  0  0  0  0  0  0  0
   24.7546    9.0269   -4.2665 H   0  0  0  0  0  0  0  0  0  0  0  0
   25.9725   10.9629   -5.2468 H   0  0  0  0  0  0  0  0  0  0  0  0
   31.2342   12.4916  -14.1735 H   0  0  0  0  0  0  0  0  0  0  0  0
   23.7438    6.9545   -4.4824 H   0  0  0  0  0  0  0  0  0  0  0  0
   22.6564    6.9135   -5.9116 H   0  0  0  0  0  0  0  0  0  0  0  0
   24.1762    5.9560   -5.9116 H   0  0  0  0  0  0  0  0  0  0  0  0
  1 11  1  0
  1  2  2  0
  1  6  1  0
  2  8  1  0
  2  3  1  0
  3  4  1  0
  4  5  1  0
  4  7  2  0
  5  6  2  0
  5 12  1  0
  8  9  2  0
  9 10  1  0
 10 19  1  0
 10 11  2  0
 11 21  1  0
 19 20  2  0
 20 21  1  0
 12 13  1  0
 13 14  2  0
 13 18  1  0
 14 15  1  0
 15 22  1  0
 15 16  2  0
 16 17  1  0
 17 18  2  0
  3 23  1  0
  6 24  1  0
  9 25  1  0
 12 26  1  0
 14 27  1  0
 16 28  1  0
 17 29  1  0
 19 30  1  0
 22 31  1  1
 22 32  1  0
 22 33  1  0
M  END
>  <Pose ID>  (94)
152

>  <Score>  (94)
-7.135288715362549

>  <smiles>  (94)
Cc1ccnc(Nc2cc3c(ncc4cnoc43)[nH]c2=O)c1

$$$$

     RDKit          3D

 37 40  0  0  0  0  0  0  0  0999 V2000
   28.0300    7.8950  -10.3640 C   0  0  0  0  0  0  0  0  0  0  0  0
   29.0120    7.1500  -11.0050 C   0  0  0  0  0  0  0  0  0  0  0  0
   29.8970    7.7700  -11.8780 N   0  0  0  0  0  0  0  0  0  0  0  0
   29.8010    9.1370  -12.1110 C   0  0  0  0  0  0  0  0  0  0  0  0
   27.1870    7.0990   -9.4730 O   0  0  0  0  0  0  0  0  0  0  0  0
   28.8190    9.8830  -11.4690 C   0  0  0  0  0  0  0  0  0  0  0  0
   27.9340    9.2610  -10.5950 C   0  0  0  0  0  0  0  0  0  0  0  0
   30.5280    9.9510  -12.8990 N   0  0  0  0  0  0  0  0  0  0  0  0
   30.0990   11.1210  -12.8130 C   0  0  0  0  0  0  0  0  0  0  0  0
   29.0380   11.1440  -11.9150 C   0  0  0  0  0  0  0  0  0  0  0  0
   26.3360    7.6410   -8.5060 C   0  0  0  0  0  0  0  0  0  0  0  0
   25.5420    8.7090   -8.8920 N   0  0  0  0  0  0  0  0  0  0  0  0
   24.8060    9.1100   -7.7920 N   0  0  0  0  0  0  0  0  0  0  0  0
   25.1170    8.3140   -6.7590 C   0  0  0  0  0  0  0  0  0  0  0  0
   26.0200    7.4200   -7.1780 C   0  0  0  0  0  0  0  0  0  0  0  0
   23.8820   10.2120   -7.8830 C   0  0  1  0  0  0  0  0  0  0  0  0
   30.5040   12.2940  -13.4410 C   0  0  0  0  0  0  0  0  0  0  0  0
   29.8460   13.4890  -13.1730 C   0  0  0  0  0  0  0  0  0  0  0  0
   28.7850   13.5110  -12.2740 N   0  0  0  0  0  0  0  0  0  0  0  0
   28.3490   12.3580  -11.6530 C   0  0  0  0  0  0  0  0  0  0  0  0
   24.4660   11.6740   -8.2870 C   0  0  1  0  0  0  0  0  0  0  0  0
   25.0520   12.3090   -7.0610 C   0  0  1  0  0  0  0  0  0  0  0  0
   29.0888    6.0682  -10.8211 H   0  0  0  0  0  0  0  0  0  0  0  0
   30.6245    7.2166  -12.3528 H   0  0  0  0  0  0  0  0  0  0  0  0
   27.1576    9.8513  -10.0864 H   0  0  0  0  0  0  0  0  0  0  0  0
   24.7017    8.3838   -5.7428 H   0  0  0  0  0  0  0  0  0  0  0  0
   26.4500    6.6223   -6.5545 H   0  0  0  0  0  0  0  0  0  0  0  0
   23.1271    9.9430   -8.6365 H   0  0  0  0  0  0  0  0  0  0  0  0
   23.5111   10.3416   -6.8556 H   0  0  0  0  0  0  0  0  0  0  0  0
   31.3450   12.2762  -14.1498 H   0  0  0  0  0  0  0  0  0  0  0  0
   30.1643   14.4164  -13.6716 H   0  0  0  0  0  0  0  0  0  0  0  0
   27.4868   12.3789  -10.9702 H   0  0  0  0  0  0  0  0  0  0  0  0
   25.2451   11.5627   -9.0555 H   0  0  0  0  0  0  0  0  0  0  0  0
   23.6585   12.3042   -8.6880 H   0  0  0  0  0  0  0  0  0  0  0  0
   24.6204   11.8413   -6.1638 H   0  0  0  0  0  0  0  0  0  0  0  0
   26.1427   12.1666   -7.0600 H   0  0  0  0  0  0  0  0  0  0  0  0
   24.8227   13.3848   -7.0600 H   0  0  0  0  0  0  0  0  0  0  0  0
  1  2  2  0
  1  7  1  0
  1  5  1  0
  2  3  1  0
  3  4  1  0
  4  8  2  0
  4  6  1  0
  6 10  1  0
  6  7  2  0
  8  9  1  0
  9 17  1  0
  9 10  2  0
 10 20  1  0
 17 18  2  0
 18 19  1  0
 19 20  2  0
  5 11  1  0
 11 12  2  0
 11 15  1  0
 12 13  1  0
 13 16  1  0
 13 14  1  0
 14 15  2  0
 16 21  1  0
 21 22  1  0
  2 23  1  0
  3 24  1  0
  7 25  1  0
 14 26  1  0
 15 27  1  0
 16 28  1  6
 16 29  1  0
 17 30  1  0
 18 31  1  0
 20 32  1  0
 21 33  1  6
 21 34  1  0
 22 35  1  1
 22 36  1  0
 22 37  1  0
M  END
>  <Pose ID>  (95)
524

>  <Score>  (95)
-7.1214776039123535

>  <smiles>  (95)
CCCn1ccc(Oc2c[nH]c3nc4ccncc4c-3c2)n1

$$$$

     RDKit          3D

 34 37  0  0  0  0  0  0  0  0999 V2000
   28.4220   10.0440  -11.6150 C   0  0  0  0  0  0  0  0  0  0  0  0
   29.1980    8.8930  -11.5190 C   0  0  0  0  0  0  0  0  0  0  0  0
   28.7920    7.7870  -10.7850 N   0  0  0  0  0  0  0  0  0  0  0  0
   27.5520    7.8090  -10.1590 C   0  0  0  0  0  0  0  0  0  0  0  0
   26.7360    8.9300  -10.2710 C   0  0  0  0  0  0  0  0  0  0  0  0
   27.1550   10.0130  -11.0200 C   0  0  0  0  0  0  0  0  0  0  0  0
   27.1700    6.8270   -9.5050 O   0  0  0  0  0  0  0  0  0  0  0  0
   30.4450    8.8430  -12.1330 N   0  0  0  0  0  0  0  0  0  0  0  0
   30.9110    9.9390  -12.8470 C   0  0  0  0  0  0  0  0  0  0  0  0
   30.1330   11.0880  -12.9460 C   0  0  0  0  0  0  0  0  0  0  0  0
   28.8850   11.1370  -12.3170 C   0  0  0  0  0  0  0  0  0  0  0  0
   25.4970    9.1980   -9.7430 N   0  0  0  0  0  0  0  0  0  0  0  0
   25.2530    9.2080   -8.2700 C   0  0  0  0  0  0  0  0  0  0  0  0
   24.5950    8.1180   -7.7160 C   0  0  0  0  0  0  0  0  0  0  0  0
   24.3380    8.0810   -6.3500 C   0  0  0  0  0  0  0  0  0  0  0  0
   24.7400    9.1370   -5.5410 C   0  0  0  0  0  0  0  0  0  0  0  0
   25.3960   10.2290   -6.0950 C   0  0  0  0  0  0  0  0  0  0  0  0
   25.6540   10.2650   -7.4600 N   0  0  0  0  0  0  0  0  0  0  0  0
   30.3700   12.3090  -13.6020 C   0  0  0  0  0  0  0  0  0  0  0  0
   29.2280   13.1560  -13.3740 C   0  0  0  0  0  0  0  0  0  0  0  0
   28.4470   12.4620  -12.5970 O   0  0  0  0  0  0  0  0  0  0  0  0
   25.8290   11.3760   -5.2150 C   0  0  1  0  0  0  0  0  0  0  0  0
   29.4021    6.9609  -10.7055 H   0  0  0  0  0  0  0  0  0  0  0  0
   26.4780   10.8699  -11.1517 H   0  0  0  0  0  0  0  0  0  0  0  0
   31.8961    9.8987  -13.3347 H   0  0  0  0  0  0  0  0  0  0  0  0
   24.7137    9.3978  -10.3813 H   0  0  0  0  0  0  0  0  0  0  0  0
   24.2769    7.2834   -8.3581 H   0  0  0  0  0  0  0  0  0  0  0  0
   23.8174    7.2174   -5.9105 H   0  0  0  0  0  0  0  0  0  0  0  0
   24.5384    9.1081   -4.4600 H   0  0  0  0  0  0  0  0  0  0  0  0
   31.2660   12.5700  -14.1842 H   0  0  0  0  0  0  0  0  0  0  0  0
   29.0537   14.1675  -13.7695 H   0  0  0  0  0  0  0  0  0  0  0  0
   25.7206   11.0889   -4.1587 H   0  0  0  0  0  0  0  0  0  0  0  0
   26.8813   11.6204   -5.4225 H   0  0  0  0  0  0  0  0  0  0  0  0
   25.2007   12.2548   -5.4225 H   0  0  0  0  0  0  0  0  0  0  0  0
  1 11  1  0
  1  2  2  0
  1  6  1  0
  2  8  1  0
  2  3  1  0
  3  4  1  0
  4  5  1  0
  4  7  2  0
  5  6  2  0
  5 12  1  0
  8  9  2  0
  9 10  1  0
 10 19  1  0
 10 11  2  0
 11 21  1  0
 19 20  2  0
 20 21  1  0
 12 13  1  0
 13 14  2  0
 13 18  1  0
 14 15  1  0
 15 16  2  0
 16 17  1  0
 17 18  2  0
 17 22  1  0
  3 23  1  0
  6 24  1  0
  9 25  1  0
 12 26  1  0
 14 27  1  0
 15 28  1  0
 16 29  1  0
 19 30  1  0
 20 31  1  0
 22 32  1  1
 22 33  1  0
 22 34  1  0
M  END
>  <Pose ID>  (96)
157

>  <Score>  (96)
-7.11802339553833

>  <smiles>  (96)
Cc1cccc(Nc2cc3c(ncc4ccoc43)[nH]c2=O)n1

$$$$

     RDKit          3D

 26 29  0  0  0  0  0  0  0  0999 V2000
   26.9670    7.0280   -9.0890 C   0  0  0  0  0  0  0  0  0  0  0  0
   28.0480    7.6000   -9.7470 N   0  0  0  0  0  0  0  0  0  0  0  0
   25.8500    7.7990   -8.7890 N   0  0  0  0  0  0  0  0  0  0  0  0
   25.8110    9.0760   -9.1480 C   0  0  0  0  0  0  0  0  0  0  0  0
   26.7840    9.8530   -9.7660 C   0  0  0  0  0  0  0  0  0  0  0  0
   28.0120    8.9420  -10.1100 C   0  0  0  0  0  0  0  0  0  0  0  0
   24.6140    9.6550   -8.7440 N   0  0  0  0  0  0  0  0  0  0  0  0
   24.3900   11.0100   -8.9570 C   0  0  0  0  0  0  0  0  0  0  0  0
   25.3630   11.7860   -9.5750 N   0  0  0  0  0  0  0  0  0  0  0  0
   26.5600   11.2210   -9.9780 C   0  0  0  0  0  0  0  0  0  0  0  0
   27.5550   12.0050  -10.6390 C   0  0  0  0  0  0  0  0  0  0  0  0
   27.9080   11.5300  -11.8980 C   0  0  0  0  0  0  0  0  0  0  0  0
   28.2750   13.0430  -10.0610 C   0  0  0  0  0  0  0  0  0  0  0  0
   29.3490   13.6060  -10.7390 C   0  0  0  0  0  0  0  0  0  0  0  0
   29.7040   13.1320  -11.9970 C   0  0  0  0  0  0  0  0  0  0  0  0
   28.9830   12.0940  -12.5760 C   0  0  0  0  0  0  0  0  0  0  0  0
   30.7630   13.8290  -12.4470 N   0  0  0  0  0  0  0  0  0  0  0  0
   31.0540   14.7260  -11.4610 O   0  0  0  0  0  0  0  0  0  0  0  0
   30.2420   14.6140  -10.4820 C   0  0  0  0  0  0  0  0  0  0  0  0
   26.9947    5.9655   -8.8054 H   0  0  0  0  0  0  0  0  0  0  0  0
   28.8661    9.3746  -10.6517 H   0  0  0  0  0  0  0  0  0  0  0  0
   23.4427   11.4680   -8.6364 H   0  0  0  0  0  0  0  0  0  0  0  0
   27.3373   10.7091  -12.3567 H   0  0  0  0  0  0  0  0  0  0  0  0
   27.9946   13.4193   -9.0661 H   0  0  0  0  0  0  0  0  0  0  0  0
   29.2631   11.7185  -13.5713 H   0  0  0  0  0  0  0  0  0  0  0  0
   30.2567   15.2316   -9.5719 H   0  0  0  0  0  0  0  0  0  0  0  0
  1  2  2  0
  1  3  1  0
  2  6  1  0
  3  4  2  0
  4  5  1  0
  4  7  1  0
  5  6  2  0
  5 10  1  0
  7  8  2  0
  8  9  1  0
  9 10  2  0
 10 11  1  0
 11 12  1  0
 11 13  2  0
 12 16  2  0
 13 14  1  0
 14 15  1  0
 14 19  2  0
 15 16  1  0
 15 17  2  0
 17 18  1  0
 18 19  1  0
  1 20  1  0
  6 21  1  0
  8 22  1  0
 12 23  1  0
 13 24  1  0
 16 25  1  0
 19 26  1  0
M  END
>  <Pose ID>  (97)
12

>  <Score>  (97)
-7.1098737716674805

>  <smiles>  (97)
c1ncc2c(-c3ccc4nocc4c3)ncnc2n1

$$$$

     RDKit          3D

 34 37  0  0  0  0  0  0  0  0999 V2000
   27.9840    7.8740  -10.3710 C   0  0  0  0  0  0  0  0  0  0  0  0
   28.9500    7.1390  -11.0460 C   0  0  0  0  0  0  0  0  0  0  0  0
   29.8330    7.7760  -11.9080 N   0  0  0  0  0  0  0  0  0  0  0  0
   29.7520    9.1500  -12.0970 C   0  0  0  0  0  0  0  0  0  0  0  0
   27.1410    7.0600   -9.4980 O   0  0  0  0  0  0  0  0  0  0  0  0
   28.7850    9.8870  -11.4210 C   0  0  0  0  0  0  0  0  0  0  0  0
   27.9030    9.2490  -10.5570 C   0  0  0  0  0  0  0  0  0  0  0  0
   30.4820    9.9810  -12.8660 N   0  0  0  0  0  0  0  0  0  0  0  0
   30.0670   11.1530  -12.7380 C   0  0  0  0  0  0  0  0  0  0  0  0
   29.0160   11.1600  -11.8290 C   0  0  0  0  0  0  0  0  0  0  0  0
   26.3070    7.5800   -8.5040 C   0  0  0  0  0  0  0  0  0  0  0  0
   25.5220    8.6710   -8.8470 N   0  0  0  0  0  0  0  0  0  0  0  0
   24.8020    9.0450   -7.7270 N   0  0  0  0  0  0  0  0  0  0  0  0
   25.1140    8.2120   -6.7240 C   0  0  0  0  0  0  0  0  0  0  0  0
   26.0010    7.3200   -7.1800 C   0  0  0  0  0  0  0  0  0  0  0  0
   23.8910   10.1600   -7.7730 C   0  0  1  0  0  0  0  0  0  0  0  0
   30.4790   12.3410  -13.3330 C   0  0  0  0  0  0  0  0  0  0  0  0
   29.8390   13.5330  -13.0180 C   0  0  0  0  0  0  0  0  0  0  0  0
   28.7880   13.5400  -12.1080 N   0  0  0  0  0  0  0  0  0  0  0  0
   28.3450   12.3720  -11.5200 C   0  0  0  0  0  0  0  0  0  0  0  0
   24.5600    8.2700   -5.3220 C   0  0  1  0  0  0  0  0  0  0  0  0
   29.0157    6.0510  -10.8976 H   0  0  0  0  0  0  0  0  0  0  0  0
   30.5487    7.2292  -12.4077 H   0  0  0  0  0  0  0  0  0  0  0  0
   27.1405    9.8325  -10.0202 H   0  0  0  0  0  0  0  0  0  0  0  0
   26.4263    6.4971   -6.5867 H   0  0  0  0  0  0  0  0  0  0  0  0
   23.6382   10.4694   -6.7481 H   0  0  0  0  0  0  0  0  0  0  0  0
   24.3651   10.9992   -8.3030 H   0  0  0  0  0  0  0  0  0  0  0  0
   22.9741    9.8627   -8.3030 H   0  0  0  0  0  0  0  0  0  0  0  0
   31.3111   12.3365  -14.0525 H   0  0  0  0  0  0  0  0  0  0  0  0
   30.1641   14.4723  -13.4891 H   0  0  0  0  0  0  0  0  0  0  0  0
   27.4907   12.3805  -10.8272 H   0  0  0  0  0  0  0  0  0  0  0  0
   25.3839    8.1837   -4.5983 H   0  0  0  0  0  0  0  0  0  0  0  0
   24.0396    9.2275   -5.1727 H   0  0  0  0  0  0  0  0  0  0  0  0
   23.8525    7.4410   -5.1727 H   0  0  0  0  0  0  0  0  0  0  0  0
  1  2  2  0
  1  7  1  0
  1  5  1  0
  2  3  1  0
  3  4  1  0
  4  8  2  0
  4  6  1  0
  6 10  1  0
  6  7  2  0
  8  9  1  0
  9 17  1  0
  9 10  2  0
 10 20  1  0
 17 18  2  0
 18 19  1  0
 19 20  2  0
  5 11  1  0
 11 12  2  0
 11 15  1  0
 12 13  1  0
 13 16  1  0
 13 14  1  0
 14 15  2  0
 14 21  1  0
  2 22  1  0
  3 23  1  0
  7 24  1  0
 15 25  1  0
 16 26  1  1
 16 27  1  0
 16 28  1  0
 17 29  1  0
 18 30  1  0
 20 31  1  0
 21 32  1  1
 21 33  1  0
 21 34  1  0
M  END
>  <Pose ID>  (98)
522

>  <Score>  (98)
-7.109114170074463

>  <smiles>  (98)
Cc1cc(Oc2c[nH]c3nc4ccncc4c-3c2)nn1C

$$$$

     RDKit          3D

 37 40  0  0  0  0  0  0  0  0999 V2000
   27.2190    8.5650  -10.2500 C   0  0  0  0  0  0  0  0  0  0  0  0
   28.0430    7.5190  -10.6390 C   0  0  0  0  0  0  0  0  0  0  0  0
   29.1430    7.7630  -11.4550 N   0  0  0  0  0  0  0  0  0  0  0  0
   29.4180    9.0570  -11.8780 C   0  0  0  0  0  0  0  0  0  0  0  0
   26.1150    8.1440   -9.3900 O   0  0  0  0  0  0  0  0  0  0  0  0
   28.5910   10.1070  -11.4890 C   0  0  0  0  0  0  0  0  0  0  0  0
   27.4940    9.8590  -10.6740 C   0  0  0  0  0  0  0  0  0  0  0  0
   30.4050    9.5400  -12.6580 N   0  0  0  0  0  0  0  0  0  0  0  0
   30.2200   10.7820  -12.7510 C   0  0  0  0  0  0  0  0  0  0  0  0
   29.1110   11.2900  -12.0850 C   0  0  0  0  0  0  0  0  0  0  0  0
   25.3310    9.0200   -8.6350 C   0  0  0  0  0  0  0  0  0  0  0  0
   24.8750   10.1660   -9.2670 N   0  0  0  0  0  0  0  0  0  0  0  0
   24.1500   10.9010   -8.3500 N   0  0  0  0  0  0  0  0  0  0  0  0
   24.1430   10.2330   -7.1860 C   0  0  0  0  0  0  0  0  0  0  0  0
   24.8300    9.0990   -7.3450 C   0  0  0  0  0  0  0  0  0  0  0  0
   23.5460   12.1570   -8.7160 C   0  0  1  0  0  0  0  0  0  0  0  0
   31.0380   11.6340  -13.4860 C   0  0  0  0  0  0  0  0  0  0  0  0
   30.7480   12.9900  -13.5540 C   0  0  0  0  0  0  0  0  0  0  0  0
   29.6360   13.4970  -12.8890 N   0  0  0  0  0  0  0  0  0  0  0  0
   28.8200   12.6470  -12.1550 C   0  0  0  0  0  0  0  0  0  0  0  0
   25.0340    8.0560   -6.2750 C   0  0  1  0  0  0  0  0  0  0  0  0
   23.6650   13.3270   -7.7100 C   0  0  1  0  0  0  0  0  0  0  0  0
   27.8262    6.4947  -10.3016 H   0  0  0  0  0  0  0  0  0  0  0  0
   29.7526    6.9851  -11.7450 H   0  0  0  0  0  0  0  0  0  0  0  0
   26.8418   10.6887  -10.3637 H   0  0  0  0  0  0  0  0  0  0  0  0
   23.6540   10.5637   -6.2578 H   0  0  0  0  0  0  0  0  0  0  0  0
   24.0105   12.4839   -9.6580 H   0  0  0  0  0  0  0  0  0  0  0  0
   22.4683   11.9440   -8.7719 H   0  0  0  0  0  0  0  0  0  0  0  0
   31.9157   11.2328  -14.0140 H   0  0  0  0  0  0  0  0  0  0  0  0
   31.3970   13.6632  -14.1333 H   0  0  0  0  0  0  0  0  0  0  0  0
   27.9418   13.0482  -11.6280 H   0  0  0  0  0  0  0  0  0  0  0  0
   24.9424    8.5246   -5.2840 H   0  0  0  0  0  0  0  0  0  0  0  0
   24.2728    7.2689   -6.3803 H   0  0  0  0  0  0  0  0  0  0  0  0
   26.0357    7.6137   -6.3803 H   0  0  0  0  0  0  0  0  0  0  0  0
   23.6250   12.9335   -6.6836 H   0  0  0  0  0  0  0  0  0  0  0  0
   24.6208   13.8487   -7.8657 H   0  0  0  0  0  0  0  0  0  0  0  0
   22.8338   14.0304   -7.8657 H   0  0  0  0  0  0  0  0  0  0  0  0
  1  7  1  0
  1  2  2  0
  1  5  1  0
  2  3  1  0
  3  4  1  0
  4  8  2  0
  4  6  1  0
  6 10  1  0
  6  7  2  0
  8  9  1  0
  9 17  1  0
  9 10  2  0
 10 20  1  0
 17 18  2  0
 18 19  1  0
 19 20  2  0
  5 11  1  0
 11 12  2  0
 11 15  1  0
 12 13  1  0
 13 16  1  0
 13 14  1  0
 14 15  2  0
 15 21  1  0
 16 22  1  0
  2 23  1  0
  3 24  1  0
  7 25  1  0
 14 26  1  0
 16 27  1  6
 16 28  1  0
 17 29  1  0
 18 30  1  0
 20 31  1  0
 21 32  1  1
 21 33  1  0
 21 34  1  0
 22 35  1  1
 22 36  1  0
 22 37  1  0
M  END
>  <Pose ID>  (99)
536

>  <Score>  (99)
-7.0862507820129395

>  <smiles>  (99)
CCn1cc(C)c(Oc2c[nH]c3nc4ccncc4c-3c2)n1

$$$$

     RDKit          3D

 36 38  0  0  0  0  0  0  0  0999 V2000
   28.2670    9.9930  -11.5600 C   0  0  0  0  0  0  0  0  0  0  0  0
   29.0910    8.8720  -11.5590 C   0  0  0  0  0  0  0  0  0  0  0  0
   28.7630    7.7150  -10.8690 N   0  0  0  0  0  0  0  0  0  0  0  0
   27.5510    7.6520  -10.1920 C   0  0  0  0  0  0  0  0  0  0  0  0
   26.6890    8.7410  -10.2080 C   0  0  0  0  0  0  0  0  0  0  0  0
   27.0290    9.8780  -10.9130 C   0  0  0  0  0  0  0  0  0  0  0  0
   27.2380    6.6220   -9.5760 O   0  0  0  0  0  0  0  0  0  0  0  0
   30.3100    8.9080  -12.2280 N   0  0  0  0  0  0  0  0  0  0  0  0
   30.7000   10.0580  -12.9010 C   0  0  0  0  0  0  0  0  0  0  0  0
   29.8750   11.1770  -12.9030 C   0  0  0  0  0  0  0  0  0  0  0  0
   28.6550   11.1400  -12.2210 C   0  0  0  0  0  0  0  0  0  0  0  0
   25.4650    8.9300   -9.6150 N   0  0  0  0  0  0  0  0  0  0  0  0
   25.2860    8.8520   -8.1340 C   0  0  0  0  0  0  0  0  0  0  0  0
   24.6980    7.7070   -7.6120 C   0  0  0  0  0  0  0  0  0  0  0  0
   24.5030    7.5900   -6.2400 C   0  0  0  0  0  0  0  0  0  0  0  0
   24.8990    8.6180   -5.3930 C   0  0  0  0  0  0  0  0  0  0  0  0
   25.4870    9.7620   -5.9150 C   0  0  0  0  0  0  0  0  0  0  0  0
   25.6810    9.8800   -7.2860 N   0  0  0  0  0  0  0  0  0  0  0  0
   27.8440   12.2410  -12.2080 N   0  0  0  0  0  0  0  0  0  0  0  0
   27.3310   12.7900  -13.4710 C   0  0  1  0  0  0  0  0  0  0  0  0
   27.7890   13.1110  -10.9900 C   0  0  1  0  0  0  0  0  0  0  0  0
   29.4090    6.9129  -10.8583 H   0  0  0  0  0  0  0  0  0  0  0  0
   26.3132   10.7114  -10.9682 H   0  0  0  0  0  0  0  0  0  0  0  0
   31.6624   10.0838  -13.4330 H   0  0  0  0  0  0  0  0  0  0  0  0
   30.1808   12.0877  -13.4389 H   0  0  0  0  0  0  0  0  0  0  0  0
   24.6473    9.1312  -10.2081 H   0  0  0  0  0  0  0  0  0  0  0  0
   24.3867    6.8932   -8.2834 H   0  0  0  0  0  0  0  0  0  0  0  0
   24.0357    6.6845   -5.8256 H   0  0  0  0  0  0  0  0  0  0  0  0
   24.7463    8.5251   -4.3076 H   0  0  0  0  0  0  0  0  0  0  0  0
   25.7994   10.5752   -5.2434 H   0  0  0  0  0  0  0  0  0  0  0  0
   26.5945   13.5782  -13.2559 H   0  0  0  0  0  0  0  0  0  0  0  0
   28.1635   13.2146  -14.0512 H   0  0  0  0  0  0  0  0  0  0  0  0
   26.8510   11.9882  -14.0512 H   0  0  0  0  0  0  0  0  0  0  0  0
   27.8287   12.4823  -10.0882 H   0  0  0  0  0  0  0  0  0  0  0  0
   28.6453   13.8015  -10.9936 H   0  0  0  0  0  0  0  0  0  0  0  0
   26.8526   13.6881  -10.9936 H   0  0  0  0  0  0  0  0  0  0  0  0
  1 11  1  0
  1  2  2  0
  1  6  1  0
  2  8  1  0
  2  3  1  0
  3  4  1  0
  4  5  1  0
  4  7  2  0
  5  6  2  0
  5 12  1  0
  8  9  2  0
  9 10  1  0
 10 11  2  0
 11 19  1  0
 19 20  1  0
 19 21  1  0
 12 13  1  0
 13 14  2  0
 13 18  1  0
 14 15  1  0
 15 16  2  0
 16 17  1  0
 17 18  2  0
  3 22  1  0
  6 23  1  0
  9 24  1  0
 10 25  1  0
 12 26  1  0
 14 27  1  0
 15 28  1  0
 16 29  1  0
 17 30  1  0
 20 31  1  1
 20 32  1  0
 20 33  1  0
 21 34  1  1
 21 35  1  0
 21 36  1  0
M  END
>  <Pose ID>  (100)
159

>  <Score>  (100)
-7.086090087890625

>  <smiles>  (100)
CN(C)c1ccnc2[nH]c(=O)c(Nc3ccccn3)cc12

$$$$

     RDKit          3D

 38 40  0  0  0  0  0  0  0  0999 V2000
   28.2900    9.9510  -11.5960 C   0  0  0  0  0  0  0  0  0  0  0  0
   29.0730    8.8090  -11.4610 C   0  0  0  0  0  0  0  0  0  0  0  0
   28.6830    7.7370  -10.6710 N   0  0  0  0  0  0  0  0  0  0  0  0
   27.4520    7.7810  -10.0280 C   0  0  0  0  0  0  0  0  0  0  0  0
   26.6300    8.8930  -10.1780 C   0  0  0  0  0  0  0  0  0  0  0  0
   27.0330    9.9420  -10.9790 C   0  0  0  0  0  0  0  0  0  0  0  0
   27.0850    6.8280   -9.3240 O   0  0  0  0  0  0  0  0  0  0  0  0
   30.3100    8.7370  -12.0930 N   0  0  0  0  0  0  0  0  0  0  0  0
   30.7590    9.8000  -12.8630 C   0  0  0  0  0  0  0  0  0  0  0  0
   29.9750   10.9400  -12.9990 C   0  0  0  0  0  0  0  0  0  0  0  0
   28.7360   11.0130  -12.3530 C   0  0  0  0  0  0  0  0  0  0  0  0
   25.3990    9.1790   -9.6420 N   0  0  0  0  0  0  0  0  0  0  0  0
   25.1780    9.2550   -8.1680 C   0  0  0  0  0  0  0  0  0  0  0  0
   24.5340    8.1880   -7.5550 C   0  0  0  0  0  0  0  0  0  0  0  0
   24.2980    8.2130   -6.1840 C   0  0  0  0  0  0  0  0  0  0  0  0
   24.7080    9.3050   -5.4290 C   0  0  0  0  0  0  0  0  0  0  0  0
   25.3500   10.3730   -6.0420 C   0  0  0  0  0  0  0  0  0  0  0  0
   25.5860   10.3480   -7.4110 N   0  0  0  0  0  0  0  0  0  0  0  0
   27.7950   12.0170  -12.3200 O   0  0  0  0  0  0  0  0  0  0  0  0
   27.7650   13.2150  -13.1530 C   0  0  1  0  0  0  0  0  0  0  0  0
   25.7910   11.5590   -5.2230 C   0  0  1  0  0  0  0  0  0  0  0  0
   24.9050   12.7590   -5.6600 C   0  0  1  0  0  0  0  0  0  0  0  0
   29.2987    6.9184  -10.5625 H   0  0  0  0  0  0  0  0  0  0  0  0
   26.3511   10.7906  -11.1364 H   0  0  0  0  0  0  0  0  0  0  0  0
   31.7355    9.7409  -13.3660 H   0  0  0  0  0  0  0  0  0  0  0  0
   30.3277   11.7821  -13.6126 H   0  0  0  0  0  0  0  0  0  0  0  0
   24.6045    9.3461  -10.2758 H   0  0  0  0  0  0  0  0  0  0  0  0
   24.2106    7.3234   -8.1532 H   0  0  0  0  0  0  0  0  0  0  0  0
   23.7871    7.3687   -5.6981 H   0  0  0  0  0  0  0  0  0  0  0  0
   24.5239    9.3236   -4.3447 H   0  0  0  0  0  0  0  0  0  0  0  0
   27.7426   14.1077  -12.5107 H   0  0  0  0  0  0  0  0  0  0  0  0
   28.6627   13.2426  -13.7881 H   0  0  0  0  0  0  0  0  0  0  0  0
   26.8670   13.1976  -13.7881 H   0  0  0  0  0  0  0  0  0  0  0  0
   25.6491   11.3536   -4.1517 H   0  0  0  0  0  0  0  0  0  0  0  0
   26.8574   11.7758   -5.3837 H   0  0  0  0  0  0  0  0  0  0  0  0
   24.5228   13.2766   -4.7678 H   0  0  0  0  0  0  0  0  0  0  0  0
   25.5051   13.4583   -6.2607 H   0  0  0  0  0  0  0  0  0  0  0  0
   24.0600   12.3913   -6.2607 H   0  0  0  0  0  0  0  0  0  0  0  0
  1 11  1  0
  1  2  2  0
  1  6  1  0
  2  8  1  0
  2  3  1  0
  3  4  1  0
  4  5  1  0
  4  7  2  0
  5  6  2  0
  5 12  1  0
  8  9  2  0
  9 10  1  0
 10 11  2  0
 11 19  1  0
 12 13  1  0
 13 14  2  0
 13 18  1  0
 14 15  1  0
 15 16  2  0
 16 17  1  0
 17 18  2  0
 17 21  1  0
 21 22  1  0
 19 20  1  0
  3 23  1  0
  6 24  1  0
  9 25  1  0
 10 26  1  0
 12 27  1  0
 14 28  1  0
 15 29  1  0
 16 30  1  0
 20 31  1  1
 20 32  1  0
 20 33  1  0
 21 34  1  1
 21 35  1  0
 22 36  1  1
 22 37  1  0
 22 38  1  0
M  END
>  <Pose ID>  (101)
174

>  <Score>  (101)
-7.075564861297607

>  <smiles>  (101)
CCc1cccc(Nc2cc3c(OC)ccnc3[nH]c2=O)n1

$$$$

     RDKit          3D

 34 37  0  0  0  0  0  0  0  0999 V2000
   28.0060    7.9080  -10.3310 C   0  0  0  0  0  0  0  0  0  0  0  0
   28.9880    7.1580  -10.9650 C   0  0  0  0  0  0  0  0  0  0  0  0
   29.8710    7.7710  -11.8480 N   0  0  0  0  0  0  0  0  0  0  0  0
   29.7710    9.1350  -12.0960 C   0  0  0  0  0  0  0  0  0  0  0  0
   27.1670    7.1200   -9.4320 O   0  0  0  0  0  0  0  0  0  0  0  0
   28.7870    9.8850  -11.4610 C   0  0  0  0  0  0  0  0  0  0  0  0
   27.9060    9.2720  -10.5780 C   0  0  0  0  0  0  0  0  0  0  0  0
   30.4950    9.9420  -12.8940 N   0  0  0  0  0  0  0  0  0  0  0  0
   30.0550   11.1210  -12.8170 C   0  0  0  0  0  0  0  0  0  0  0  0
   28.9730   11.1380  -11.9470 C   0  0  0  0  0  0  0  0  0  0  0  0
   26.3160    7.6720   -8.4690 C   0  0  0  0  0  0  0  0  0  0  0  0
   25.5190    8.7330   -8.8650 N   0  0  0  0  0  0  0  0  0  0  0  0
   24.7810    9.1440   -7.7690 N   0  0  0  0  0  0  0  0  0  0  0  0
   25.0980    8.3610   -6.7280 C   0  0  0  0  0  0  0  0  0  0  0  0
   26.0020    7.4640   -7.1380 C   0  0  0  0  0  0  0  0  0  0  0  0
   23.8550   10.2430   -7.8720 C   0  0  1  0  0  0  0  0  0  0  0  0
   30.4620   12.2940  -13.4410 C   0  0  0  0  0  0  0  0  0  0  0  0
   29.7840   13.4820  -13.1980 C   0  0  0  0  0  0  0  0  0  0  0  0
   28.7010   13.4990  -12.3290 C   0  0  0  0  0  0  0  0  0  0  0  0
   28.2950   12.3260  -11.7020 N   0  0  0  0  0  0  0  0  0  0  0  0
   24.4360   11.7010   -8.2950 C   0  0  1  0  0  0  0  0  0  0  0  0
   29.0676    6.0786  -10.7688 H   0  0  0  0  0  0  0  0  0  0  0  0
   30.5989    7.2141  -12.3180 H   0  0  0  0  0  0  0  0  0  0  0  0
   27.1294    9.8665  -10.0745 H   0  0  0  0  0  0  0  0  0  0  0  0
   24.6857    8.4421   -5.7114 H   0  0  0  0  0  0  0  0  0  0  0  0
   26.4340    6.6736   -6.5066 H   0  0  0  0  0  0  0  0  0  0  0  0
   23.0993    9.9634   -8.6208 H   0  0  0  0  0  0  0  0  0  0  0  0
   23.4854   10.3846   -6.8457 H   0  0  0  0  0  0  0  0  0  0  0  0
   31.3213   12.2819  -14.1276 H   0  0  0  0  0  0  0  0  0  0  0  0
   30.1052   14.4097  -13.6942 H   0  0  0  0  0  0  0  0  0  0  0  0
   28.1645   14.4399  -12.1367 H   0  0  0  0  0  0  0  0  0  0  0  0
   24.6670   12.2806   -7.3891 H   0  0  0  0  0  0  0  0  0  0  0  0
   25.3514   11.5721   -8.8911 H   0  0  0  0  0  0  0  0  0  0  0  0
   23.6828   12.2370   -8.8911 H   0  0  0  0  0  0  0  0  0  0  0  0
  1  2  2  0
  1  7  1  0
  1  5  1  0
  2  3  1  0
  3  4  1  0
  4  8  2  0
  4  6  1  0
  6 10  1  0
  6  7  2  0
  8  9  1  0
  9 17  1  0
  9 10  2  0
 10 20  1  0
 17 18  2  0
 18 19  1  0
 19 20  2  0
  5 11  1  0
 11 12  2  0
 11 15  1  0
 12 13  1  0
 13 16  1  0
 13 14  1  0
 14 15  2  0
 16 21  1  0
  2 22  1  0
  3 23  1  0
  7 24  1  0
 14 25  1  0
 15 26  1  0
 16 27  1  6
 16 28  1  0
 17 29  1  0
 18 30  1  0
 19 31  1  0
 21 32  1  1
 21 33  1  0
 21 34  1  0
M  END
>  <Pose ID>  (102)
507

>  <Score>  (102)
-7.0620293617248535

>  <smiles>  (102)
CCn1ccc(Oc2c[nH]c3nc4cccnc4c-3c2)n1

$$$$

     RDKit          3D

 37 40  0  0  0  0  0  0  0  0999 V2000
   27.1810    8.4870  -10.1870 C   0  0  0  0  0  0  0  0  0  0  0  0
   27.9860    7.4350  -10.6010 C   0  0  0  0  0  0  0  0  0  0  0  0
   29.0780    7.6770  -11.4270 N   0  0  0  0  0  0  0  0  0  0  0  0
   29.3650    8.9730  -11.8360 C   0  0  0  0  0  0  0  0  0  0  0  0
   26.0820    8.0680   -9.3180 O   0  0  0  0  0  0  0  0  0  0  0  0
   28.5580   10.0280  -11.4210 C   0  0  0  0  0  0  0  0  0  0  0  0
   27.4680    9.7830  -10.5960 C   0  0  0  0  0  0  0  0  0  0  0  0
   30.3480    9.4530  -12.6220 N   0  0  0  0  0  0  0  0  0  0  0  0
   30.1800   10.6990  -12.6950 C   0  0  0  0  0  0  0  0  0  0  0  0
   29.0860   11.2120  -12.0070 C   0  0  0  0  0  0  0  0  0  0  0  0
   25.3200    8.9440   -8.5400 C   0  0  0  0  0  0  0  0  0  0  0  0
   24.8720   10.1050   -9.1510 N   0  0  0  0  0  0  0  0  0  0  0  0
   24.1690   10.8370   -8.2130 N   0  0  0  0  0  0  0  0  0  0  0  0
   24.1680   10.1520   -7.0590 C   0  0  0  0  0  0  0  0  0  0  0  0
   24.8370    9.0120   -7.2430 C   0  0  0  0  0  0  0  0  0  0  0  0
   23.5780   12.1050   -8.5540 C   0  0  1  0  0  0  0  0  0  0  0  0
   31.0000   11.5500  -13.4290 C   0  0  0  0  0  0  0  0  0  0  0  0
   30.7270   12.9110  -13.4740 C   0  0  0  0  0  0  0  0  0  0  0  0
   29.6310   13.4230  -12.7870 N   0  0  0  0  0  0  0  0  0  0  0  0
   28.8130   12.5740  -12.0540 C   0  0  0  0  0  0  0  0  0  0  0  0
   25.0410    7.9510   -6.1900 C   0  0  1  0  0  0  0  0  0  0  0  0
   27.6260   13.1300  -11.3070 C   0  0  1  0  0  0  0  0  0  0  0  0
   27.7599    6.4089  -10.2754 H   0  0  0  0  0  0  0  0  0  0  0  0
   29.6739    6.8955  -11.7355 H   0  0  0  0  0  0  0  0  0  0  0  0
   26.8309   10.6167  -10.2659 H   0  0  0  0  0  0  0  0  0  0  0  0
   23.6955   10.4756   -6.1198 H   0  0  0  0  0  0  0  0  0  0  0  0
   23.3238   12.6505   -7.6332 H   0  0  0  0  0  0  0  0  0  0  0  0
   24.2934   12.6960   -9.1446 H   0  0  0  0  0  0  0  0  0  0  0  0
   22.6653   11.9372   -9.1446 H   0  0  0  0  0  0  0  0  0  0  0  0
   31.8652   11.1447  -13.9741 H   0  0  0  0  0  0  0  0  0  0  0  0
   31.3771   13.5838  -14.0526 H   0  0  0  0  0  0  0  0  0  0  0  0
   24.9539    8.4040   -5.1914 H   0  0  0  0  0  0  0  0  0  0  0  0
   24.2769    7.1681   -6.3054 H   0  0  0  0  0  0  0  0  0  0  0  0
   26.0409    7.5073   -6.3054 H   0  0  0  0  0  0  0  0  0  0  0  0
   27.8025   13.0473  -10.2244 H   0  0  0  0  0  0  0  0  0  0  0  0
   27.4860   14.1874  -11.5760 H   0  0  0  0  0  0  0  0  0  0  0  0
   26.7240   12.5607  -11.5760 H   0  0  0  0  0  0  0  0  0  0  0  0
  1  2  2  0
  1  7  1  0
  1  5  1  0
  2  3  1  0
  3  4  1  0
  4  8  2  0
  4  6  1  0
  6 10  1  0
  6  7  2  0
  8  9  1  0
  9 17  1  0
  9 10  2  0
 10 20  1  0
 17 18  2  0
 18 19  1  0
 19 20  2  0
 20 22  1  0
  5 11  1  0
 11 12  2  0
 11 15  1  0
 12 13  1  0
 13 16  1  0
 13 14  1  0
 14 15  2  0
 15 21  1  0
  2 23  1  0
  3 24  1  0
  7 25  1  0
 14 26  1  0
 16 27  1  1
 16 28  1  0
 16 29  1  0
 17 30  1  0
 18 31  1  0
 21 32  1  1
 21 33  1  0
 21 34  1  0
 22 35  1  1
 22 36  1  0
 22 37  1  0
M  END
>  <Pose ID>  (103)
538

>  <Score>  (103)
-7.053563117980957

>  <smiles>  (103)
Cc1cn(C)nc1Oc1c[nH]c2nc3ccnc(C)c3c-2c1

$$$$

     RDKit          3D

 38 41  0  0  0  0  0  0  0  0999 V2000
   27.9360    7.8940  -10.3480 C   0  0  0  0  0  0  0  0  0  0  0  0
   28.8500    7.1440  -11.0790 C   0  0  0  0  0  0  0  0  0  0  0  0
   29.7190    7.7730  -11.9590 N   0  0  0  0  0  0  0  0  0  0  0  0
   29.6760    9.1560  -12.1110 C   0  0  0  0  0  0  0  0  0  0  0  0
   27.1000    7.0860   -9.4610 O   0  0  0  0  0  0  0  0  0  0  0  0
   28.7610    9.9070  -11.3790 C   0  0  0  0  0  0  0  0  0  0  0  0
   27.8920    9.2750  -10.4980 C   0  0  0  0  0  0  0  0  0  0  0  0
   30.4020    9.9830  -12.8870 N   0  0  0  0  0  0  0  0  0  0  0  0
   29.9730   11.2740  -12.6810 C   0  0  0  0  0  0  0  0  0  0  0  0
   28.9540   11.0560  -11.7300 C   0  0  0  0  0  0  0  0  0  0  0  0
   26.3230    7.6080   -8.4240 C   0  0  0  0  0  0  0  0  0  0  0  0
   25.5610    8.7310   -8.7080 N   0  0  0  0  0  0  0  0  0  0  0  0
   24.8970    9.0990   -7.5520 N   0  0  0  0  0  0  0  0  0  0  0  0
   25.2210    8.2310   -6.5830 C   0  0  0  0  0  0  0  0  0  0  0  0
   26.0610    7.3240   -7.0940 C   0  0  0  0  0  0  0  0  0  0  0  0
   24.0210   10.2440   -7.5370 C   0  0  1  0  0  0  0  0  0  0  0  0
   30.4570   12.5620  -13.3000 C   0  0  1  0  0  0  0  0  0  0  0  0
   28.3140   12.3090  -11.2720 C   0  0  0  0  0  0  0  0  0  0  0  0
   28.2260   12.6440   -9.9260 C   0  0  0  0  0  0  0  0  0  0  0  0
   27.4450   13.7220   -9.5280 C   0  0  0  0  0  0  0  0  0  0  0  0
   26.7500   14.4640  -10.4760 C   0  0  0  0  0  0  0  0  0  0  0  0
   27.6200   13.0520  -12.2200 C   0  0  0  0  0  0  0  0  0  0  0  0
   26.8380   14.1300  -11.8220 N   0  0  0  0  0  0  0  0  0  0  0  0
   28.8844    6.0510  -10.9597 H   0  0  0  0  0  0  0  0  0  0  0  0
   30.3961    7.2164  -12.4999 H   0  0  0  0  0  0  0  0  0  0  0  0
   27.1688    9.8680   -9.9189 H   0  0  0  0  0  0  0  0  0  0  0  0
   24.8581    8.2597   -5.5450 H   0  0  0  0  0  0  0  0  0  0  0  0
   26.4832    6.4742   -6.5375 H   0  0  0  0  0  0  0  0  0  0  0  0
   23.8048   10.5266   -6.4961 H   0  0  0  0  0  0  0  0  0  0  0  0
   24.5083   11.0852   -8.0517 H   0  0  0  0  0  0  0  0  0  0  0  0
   23.0816    9.9937   -8.0517 H   0  0  0  0  0  0  0  0  0  0  0  0
   30.7243   13.2733  -12.5046 H   0  0  0  0  0  0  0  0  0  0  0  0
   31.3405   12.3599  -13.9233 H   0  0  0  0  0  0  0  0  0  0  0  0
   29.6590   12.9918  -13.9233 H   0  0  0  0  0  0  0  0  0  0  0  0
   28.7747   12.0557   -9.1758 H   0  0  0  0  0  0  0  0  0  0  0  0
   27.3767   13.9882   -8.4629 H   0  0  0  0  0  0  0  0  0  0  0  0
   26.1300   15.3161  -10.1605 H   0  0  0  0  0  0  0  0  0  0  0  0
   27.6897   12.7868  -13.2853 H   0  0  0  0  0  0  0  0  0  0  0  0
  1  2  2  0
  1  7  1  0
  1  5  1  0
  2  3  1  0
  3  4  1  0
  4  8  2  0
  4  6  1  0
  6 10  1  0
  6  7  2  0
  8  9  1  0
  9 17  1  0
  9 10  2  0
 10 18  1  0
 18 22  1  0
 18 19  2  0
 19 20  1  0
 20 21  2  0
 21 23  1  0
 22 23  2  0
  5 11  1  0
 11 12  2  0
 11 15  1  0
 12 13  1  0
 13 16  1  0
 13 14  1  0
 14 15  2  0
  2 24  1  0
  3 25  1  0
  7 26  1  0
 14 27  1  0
 15 28  1  0
 16 29  1  1
 16 30  1  0
 16 31  1  0
 17 32  1  1
 17 33  1  0
 17 34  1  0
 19 35  1  0
 20 36  1  0
 21 37  1  0
 22 38  1  0
M  END
>  <Pose ID>  (104)
493

>  <Score>  (104)
-7.0531487464904785

>  <smiles>  (104)
Cc1nc2[nH]cc(Oc3ccn(C)n3)cc-2c1-c1cccnc1

$$$$

     RDKit          3D

 35 38  0  0  0  0  0  0  0  0999 V2000
   27.3770    8.0050  -10.2350 C   0  0  0  0  0  0  0  0  0  0  0  0
   28.4110    7.1960  -10.6830 C   0  0  0  0  0  0  0  0  0  0  0  0
   29.4130    7.7300  -11.4810 N   0  0  0  0  0  0  0  0  0  0  0  0
   26.5410    7.2780   -9.4800 N   0  0  0  0  0  0  0  0  0  0  0  0
   29.3850    9.0760  -11.8320 C   0  0  0  0  0  0  0  0  0  0  0  0
   28.3490    9.8840  -11.3830 C   0  0  0  0  0  0  0  0  0  0  0  0
   27.3450    9.3530  -10.5850 C   0  0  0  0  0  0  0  0  0  0  0  0
   30.2270    9.8090  -12.5780 N   0  0  0  0  0  0  0  0  0  0  0  0
   29.8020   11.0290  -12.6380 C   0  0  0  0  0  0  0  0  0  0  0  0
   28.6450   11.0350  -11.8690 C   0  0  0  0  0  0  0  0  0  0  0  0
   26.0320    7.7260   -8.2240 C   0  0  0  0  0  0  0  0  0  0  0  0
   25.3440    6.8170   -7.4280 N   0  0  0  0  0  0  0  0  0  0  0  0
   24.7310    7.2440   -6.2550 C   0  0  0  0  0  0  0  0  0  0  0  0
   24.8060    8.5800   -5.8810 C   0  0  0  0  0  0  0  0  0  0  0  0
   25.4940    9.4900   -6.6790 C   0  0  0  0  0  0  0  0  0  0  0  0
   26.1300    9.0530   -7.8340 C   0  0  0  0  0  0  0  0  0  0  0  0
   24.1170    6.4290   -5.5430 O   0  0  0  0  0  0  0  0  0  0  0  0
   30.2300   12.1980  -13.2570 C   0  0  0  0  0  0  0  0  0  0  0  0
   29.5010   13.3710  -13.1070 C   0  0  0  0  0  0  0  0  0  0  0  0
   28.3430   13.3770  -12.3370 N   0  0  0  0  0  0  0  0  0  0  0  0
   27.8830   12.2250  -11.7290 C   0  0  0  0  0  0  0  0  0  0  0  0
   26.6000   12.2310  -10.9350 C   0  0  1  0  0  0  0  0  0  0  0  0
   28.4367    6.1318  -10.4059 H   0  0  0  0  0  0  0  0  0  0  0  0
   30.1795    7.1282  -11.8143 H   0  0  0  0  0  0  0  0  0  0  0  0
   26.2519    6.3508   -9.8231 H   0  0  0  0  0  0  0  0  0  0  0  0
   26.5257    9.9953  -10.2297 H   0  0  0  0  0  0  0  0  0  0  0  0
   25.2883    5.8271   -7.7072 H   0  0  0  0  0  0  0  0  0  0  0  0
   24.3213    8.9190   -4.9536 H   0  0  0  0  0  0  0  0  0  0  0  0
   25.5338   10.5521   -6.3956 H   0  0  0  0  0  0  0  0  0  0  0  0
   26.7129    9.7615   -8.4408 H   0  0  0  0  0  0  0  0  0  0  0  0
   31.1462   12.1941  -13.8657 H   0  0  0  0  0  0  0  0  0  0  0  0
   29.8399   14.2954  -13.5975 H   0  0  0  0  0  0  0  0  0  0  0  0
   26.8340   12.2299   -9.8602 H   0  0  0  0  0  0  0  0  0  0  0  0
   26.0195   13.1319  -11.1830 H   0  0  0  0  0  0  0  0  0  0  0  0
   26.0111   11.3356  -11.1830 H   0  0  0  0  0  0  0  0  0  0  0  0
  1  2  2  0
  1  7  1  0
  1  4  1  0
  2  3  1  0
  3  5  1  0
  5  8  2  0
  5  6  1  0
  6 10  1  0
  6  7  2  0
  8  9  1  0
  9 18  1  0
  9 10  2  0
 10 21  1  0
 18 19  2  0
 19 20  1  0
 20 21  2  0
 21 22  1  0
  4 11  1  0
 11 16  2  0
 11 12  1  0
 12 13  1  0
 13 14  1  0
 13 17  2  0
 14 15  2  0
 15 16  1  0
  2 23  1  0
  3 24  1  0
  4 25  1  0
  7 26  1  0
 12 27  1  0
 14 28  1  0
 15 29  1  0
 16 30  1  0
 18 31  1  0
 19 32  1  0
 22 33  1  1
 22 34  1  0
 22 35  1  0
M  END
>  <Pose ID>  (105)
106

>  <Score>  (105)
-7.05095911026001

>  <smiles>  (105)
Cc1nccc2nc3[nH]cc(Nc4cccc(=O)[nH]4)cc-3c12

$$$$

     RDKit          3D

 28 31  0  0  0  0  0  0  0  0999 V2000
   27.2100    8.1910   -9.5700 C   0  0  0  0  0  0  0  0  0  0  0  0
   27.0900    7.0620   -8.7660 N   0  0  0  0  0  0  0  0  0  0  0  0
   26.1420    7.0320   -7.7490 C   0  0  0  0  0  0  0  0  0  0  0  0
   25.3150    8.1300   -7.5350 C   0  0  0  0  0  0  0  0  0  0  0  0
   25.4340    9.2570   -8.3410 N   0  0  0  0  0  0  0  0  0  0  0  0
   26.3830    9.2880   -9.3570 C   0  0  0  0  0  0  0  0  0  0  0  0
   24.3180    8.2710   -6.5770 C   0  0  0  0  0  0  0  0  0  0  0  0
   23.9980    7.2430   -5.6990 C   0  0  0  0  0  0  0  0  0  0  0  0
   23.6150    9.4690   -6.5300 C   0  0  0  0  0  0  0  0  0  0  0  0
   22.9760    7.4090   -4.7760 N   0  0  0  0  0  0  0  0  0  0  0  0
   22.2710    8.6070   -4.7280 C   0  0  0  0  0  0  0  0  0  0  0  0
   24.3000   10.1990   -7.7070 N   0  0  0  0  0  0  0  0  0  0  0  0
   22.5900    9.6370   -5.6050 C   0  0  0  0  0  0  0  0  0  0  0  0
   28.1680    8.2210  -10.5980 C   0  0  0  0  0  0  0  0  0  0  0  0
   29.2210    9.1290  -10.6180 O   0  0  0  0  0  0  0  0  0  0  0  0
   28.2270    7.4130  -11.6970 N   0  0  0  0  0  0  0  0  0  0  0  0
   29.8830    8.8140  -11.7800 C   0  0  0  0  0  0  0  0  0  0  0  0
   29.2840    7.7650  -12.4620 C   0  0  0  0  0  0  0  0  0  0  0  0
   21.1590    8.7880   -3.7250 C   0  0  1  0  0  0  0  0  0  0  0  0
   26.0460    6.1394   -7.1133 H   0  0  0  0  0  0  0  0  0  0  0  0
   26.4793   10.1808   -9.9923 H   0  0  0  0  0  0  0  0  0  0  0  0
   24.5561    6.2958   -5.7359 H   0  0  0  0  0  0  0  0  0  0  0  0
   22.0322   10.5844   -5.5675 H   0  0  0  0  0  0  0  0  0  0  0  0
   30.7863    9.3350  -12.1301 H   0  0  0  0  0  0  0  0  0  0  0  0
   29.6000    7.3178  -13.4160 H   0  0  0  0  0  0  0  0  0  0  0  0
   21.5693    8.7212   -2.7066 H   0  0  0  0  0  0  0  0  0  0  0  0
   20.6927    9.7739   -3.8685 H   0  0  0  0  0  0  0  0  0  0  0  0
   20.4041    8.0009   -3.8685 H   0  0  0  0  0  0  0  0  0  0  0  0
  1 14  1  0
  1  6  2  0
  1  2  1  0
  2  3  2  0
  3  4  1  0
  4  5  1  0
  4  7  2  0
  5  6  1  0
  5 12  1  0
  7  9  1  0
  7  8  1  0
  8 10  2  0
  9 12  2  0
  9 13  1  0
 10 11  1  0
 11 13  2  0
 11 19  1  0
 14 16  2  0
 14 15  1  0
 15 17  1  0
 16 18  1  0
 17 18  2  0
  3 20  1  0
  6 21  1  0
  8 22  1  0
 13 23  1  0
 17 24  1  0
 18 25  1  0
 19 26  1  1
 19 27  1  0
 19 28  1  0
M  END
>  <Pose ID>  (106)
55

>  <Score>  (106)
-7.049378871917725

>  <smiles>  (106)
Cc1cc2nn3cc(-c4ncco4)ncc3c2cn1

$$$$

     RDKit          3D

 35 38  0  0  0  0  0  0  0  0999 V2000
   27.0460    9.5130  -10.1580 C   0  0  0  0  0  0  0  0  0  0  0  0
   27.6530    8.4150  -10.7510 C   0  0  0  0  0  0  0  0  0  0  0  0
   28.6870    8.6020  -11.6610 N   0  0  0  0  0  0  0  0  0  0  0  0
   29.1170    9.8850  -11.9750 C   0  0  0  0  0  0  0  0  0  0  0  0
   25.9830    9.1530   -9.2220 O   0  0  0  0  0  0  0  0  0  0  0  0
   28.5060   10.9850  -11.3810 C   0  0  0  0  0  0  0  0  0  0  0  0
   27.4730   10.7990  -10.4710 C   0  0  0  0  0  0  0  0  0  0  0  0
   30.0830   10.3140  -12.8120 N   0  0  0  0  0  0  0  0  0  0  0  0
   30.1160   11.6900  -12.7780 C   0  0  0  0  0  0  0  0  0  0  0  0
   29.0810   11.9490  -11.8550 C   0  0  0  0  0  0  0  0  0  0  0  0
   25.4250   10.0320   -8.2880 C   0  0  0  0  0  0  0  0  0  0  0  0
   25.0910   11.2990   -8.7370 N   0  0  0  0  0  0  0  0  0  0  0  0
   24.5910   12.0130   -7.6640 N   0  0  0  0  0  0  0  0  0  0  0  0
   24.5960   11.2160   -6.5850 C   0  0  0  0  0  0  0  0  0  0  0  0
   25.0790   10.0230   -6.9490 C   0  0  0  0  0  0  0  0  0  0  0  0
   24.2100   13.2290   -7.7670 C   0  0  0  0  0  0  0  0  0  0  0  0
   23.6910   13.8340   -6.6290 C   0  0  0  0  0  0  0  0  0  0  0  0
   24.2680   13.9330   -8.9640 C   0  0  0  0  0  0  0  0  0  0  0  0
   23.2290   15.1430   -6.6870 N   0  0  0  0  0  0  0  0  0  0  0  0
   23.8060   15.2420   -9.0220 C   0  0  0  0  0  0  0  0  0  0  0  0
   23.2960   15.8730   -7.8560 C   0  0  0  0  0  0  0  0  0  0  0  0
   27.1900    7.0200  -10.4090 C   0  0  1  0  0  0  0  0  0  0  0  0
   29.1355    7.7872  -12.1036 H   0  0  0  0  0  0  0  0  0  0  0  0
   26.9930   11.6685   -9.9982 H   0  0  0  0  0  0  0  0  0  0  0  0
   30.7676   12.3916  -13.3194 H   0  0  0  0  0  0  0  0  0  0  0  0
   28.8051   12.9765  -11.5754 H   0  0  0  0  0  0  0  0  0  0  0  0
   24.2608   11.4953   -5.5752 H   0  0  0  0  0  0  0  0  0  0  0  0
   25.1859    9.1575   -6.2785 H   0  0  0  0  0  0  0  0  0  0  0  0
   23.6459   13.2764   -5.6818 H   0  0  0  0  0  0  0  0  0  0  0  0
   24.6794   13.4541   -9.8648 H   0  0  0  0  0  0  0  0  0  0  0  0
   23.8353   15.7918   -9.9743 H   0  0  0  0  0  0  0  0  0  0  0  0
   22.9618   16.9206   -7.8844 H   0  0  0  0  0  0  0  0  0  0  0  0
   27.1515    6.9041   -9.3158 H   0  0  0  0  0  0  0  0  0  0  0  0
   26.1881    6.8524  -10.8310 H   0  0  0  0  0  0  0  0  0  0  0  0
   27.8929    6.2866  -10.8310 H   0  0  0  0  0  0  0  0  0  0  0  0
  5  1  1  0
  5 11  1  0
  1  2  2  0
  1  7  1  0
  2  3  1  0
  2 22  1  0
  3  4  1  0
  4  8  2  0
  4  6  1  0
  6 10  1  0
  6  7  2  0
  8  9  1  0
  9 10  2  0
 11 12  2  0
 11 15  1  0
 12 13  1  0
 13 16  1  0
 13 14  1  0
 14 15  2  0
 16 18  1  0
 16 17  2  0
 17 19  1  0
 18 20  2  0
 19 21  2  0
 20 21  1  0
  3 23  1  0
  7 24  1  0
  9 25  1  0
 10 26  1  0
 14 27  1  0
 15 28  1  0
 17 29  1  0
 18 30  1  0
 20 31  1  0
 21 32  1  0
 22 33  1  1
 22 34  1  0
 22 35  1  0
M  END
>  <Pose ID>  (107)
406

>  <Score>  (107)
-7.034362316131592

>  <smiles>  (107)
Cc1[nH]c2nccc-2cc1Oc1ccn(-c2cccnc2)n1

$$$$

     RDKit          3D

 39 42  0  0  0  0  0  0  0  0999 V2000
   27.3640    7.9610  -10.1620 C   0  0  0  0  0  0  0  0  0  0  0  0
   28.4720    7.1920  -10.4820 C   0  0  0  0  0  0  0  0  0  0  0  0
   29.4530    7.7050  -11.3230 N   0  0  0  0  0  0  0  0  0  0  0  0
   26.5680    7.2630   -9.3340 N   0  0  0  0  0  0  0  0  0  0  0  0
   29.3230    8.9870  -11.8420 C   0  0  0  0  0  0  0  0  0  0  0  0
   28.2120    9.7560  -11.5210 C   0  0  0  0  0  0  0  0  0  0  0  0
   27.2320    9.2470  -10.6810 C   0  0  0  0  0  0  0  0  0  0  0  0
   30.1260    9.6890  -12.6610 N   0  0  0  0  0  0  0  0  0  0  0  0
   29.5560   10.9210  -12.8890 C   0  0  0  0  0  0  0  0  0  0  0  0
   28.3760   10.8020  -12.1250 C   0  0  0  0  0  0  0  0  0  0  0  0
   25.9860    7.8240   -8.1580 C   0  0  0  0  0  0  0  0  0  0  0  0
   25.3520    6.9690   -7.2640 N   0  0  0  0  0  0  0  0  0  0  0  0
   24.6720    7.4870   -6.1680 C   0  0  0  0  0  0  0  0  0  0  0  0
   24.6260    8.8610   -5.9670 C   0  0  0  0  0  0  0  0  0  0  0  0
   25.2600    9.7180   -6.8590 C   0  0  0  0  0  0  0  0  0  0  0  0
   25.9660    9.1940   -7.9390 C   0  0  0  0  0  0  0  0  0  0  0  0
   23.9660    6.8480   -5.1450 C   0  0  0  0  0  0  0  0  0  0  0  0
   23.6250    7.8440   -4.2540 N   0  0  0  0  0  0  0  0  0  0  0  0
   24.0060    9.0250   -4.6190 C   0  0  0  0  0  0  0  0  0  0  0  0
   25.1830   11.2120   -6.6590 C   0  0  1  0  0  0  0  0  0  0  0  0
   26.5220   11.6510   -6.1180 C   0  0  1  0  0  0  0  0  0  0  0  0
   27.3640   11.9190  -12.0580 C   0  0  1  0  0  0  0  0  0  0  0  0
   28.5750    6.1769  -10.0709 H   0  0  0  0  0  0  0  0  0  0  0  0
   30.2766    7.1342  -11.5614 H   0  0  0  0  0  0  0  0  0  0  0  0
   26.3689    6.2777   -9.5586 H   0  0  0  0  0  0  0  0  0  0  0  0
   26.3532    9.8573  -10.4256 H   0  0  0  0  0  0  0  0  0  0  0  0
   29.9190   11.7628  -13.4969 H   0  0  0  0  0  0  0  0  0  0  0  0
   25.3862    5.9505   -7.4139 H   0  0  0  0  0  0  0  0  0  0  0  0
   26.5085    9.8670   -8.6193 H   0  0  0  0  0  0  0  0  0  0  0  0
   23.7316    5.7761   -5.0669 H   0  0  0  0  0  0  0  0  0  0  0  0
   23.8955    9.9606   -4.0511 H   0  0  0  0  0  0  0  0  0  0  0  0
   24.9798   11.7121   -7.6175 H   0  0  0  0  0  0  0  0  0  0  0  0
   24.3719   11.4751   -5.9641 H   0  0  0  0  0  0  0  0  0  0  0  0
   26.4941   11.6418   -5.0184 H   0  0  0  0  0  0  0  0  0  0  0  0
   27.3037   10.9621   -6.4707 H   0  0  0  0  0  0  0  0  0  0  0  0
   26.7441   12.6690   -6.4707 H   0  0  0  0  0  0  0  0  0  0  0  0
   27.1490   12.1563  -11.0056 H   0  0  0  0  0  0  0  0  0  0  0  0
   27.7682   12.8106  -12.5598 H   0  0  0  0  0  0  0  0  0  0  0  0
   26.4370   11.6045  -12.5598 H   0  0  0  0  0  0  0  0  0  0  0  0
  4  1  1  0
  4 11  1  0
  1  7  1  0
  1  2  2  0
  2  3  1  0
  3  5  1  0
  5  8  2  0
  5  6  1  0
  6 10  1  0
  6  7  2  0
  8  9  1  0
  9 10  2  0
 10 22  1  0
 11 16  2  0
 11 12  1  0
 12 13  1  0
 13 14  1  0
 13 17  2  0
 14 15  2  0
 14 19  1  0
 15 16  1  0
 15 20  1  0
 17 18  1  0
 18 19  2  0
 20 21  1  0
  2 23  1  0
  3 24  1  0
  4 25  1  0
  7 26  1  0
  9 27  1  0
 12 28  1  0
 16 29  1  0
 17 30  1  0
 19 31  1  0
 20 32  1  6
 20 33  1  0
 21 34  1  1
 21 35  1  0
 21 36  1  0
 22 37  1  1
 22 38  1  0
 22 39  1  0
M  END
>  <Pose ID>  (108)
90

>  <Score>  (108)
-7.025394916534424

>  <smiles>  (108)
CCc1cc(Nc2c[nH]c3ncc(C)c-3c2)[nH]c2cncc1-2

$$$$

     RDKit          3D

 38 41  0  0  0  0  0  0  0  0999 V2000
   27.1800    8.8590  -10.2950 C   0  0  0  0  0  0  0  0  0  0  0  0
   27.6350    7.5820  -10.5910 C   0  0  0  0  0  0  0  0  0  0  0  0
   28.7690    7.4120  -11.3780 N   0  0  0  0  0  0  0  0  0  0  0  0
   29.4480    8.5210  -11.8690 C   0  0  0  0  0  0  0  0  0  0  0  0
   25.9870    8.8670   -9.4560 O   0  0  0  0  0  0  0  0  0  0  0  0
   28.9910    9.8020  -11.5740 C   0  0  0  0  0  0  0  0  0  0  0  0
   27.8580    9.9690  -10.7840 C   0  0  0  0  0  0  0  0  0  0  0  0
   30.5500    8.6120  -12.6390 N   0  0  0  0  0  0  0  0  0  0  0  0
   30.8240    9.9430  -12.8590 C   0  0  0  0  0  0  0  0  0  0  0  0
   29.7670   10.5470  -12.1420 C   0  0  0  0  0  0  0  0  0  0  0  0
   25.5060    9.9960   -8.7820 C   0  0  0  0  0  0  0  0  0  0  0  0
   25.4480   11.1800   -9.4990 N   0  0  0  0  0  0  0  0  0  0  0  0
   24.9820   12.1670   -8.6520 N   0  0  0  0  0  0  0  0  0  0  0  0
   24.7420   11.6190   -7.4520 C   0  0  0  0  0  0  0  0  0  0  0  0
   25.0370   10.3190   -7.5190 C   0  0  0  0  0  0  0  0  0  0  0  0
   24.8430   13.4720   -9.0260 C   0  0  0  0  0  0  0  0  0  0  0  0
   23.6150   14.1110   -8.9050 C   0  0  0  0  0  0  0  0  0  0  0  0
   25.9500   14.1750   -9.4860 C   0  0  0  0  0  0  0  0  0  0  0  0
   23.4940   15.4530   -9.2460 C   0  0  0  0  0  0  0  0  0  0  0  0
   24.6010   16.1550   -9.7080 C   0  0  0  0  0  0  0  0  0  0  0  0
   25.8380   15.5000   -9.8330 N   0  0  0  0  0  0  0  0  0  0  0  0
   24.8830    9.3400   -6.3820 C   0  0  1  0  0  0  0  0  0  0  0  0
   29.6080   12.0460  -12.0840 C   0  0  1  0  0  0  0  0  0  0  0  0
   27.0985    6.7036  -10.2030 H   0  0  0  0  0  0  0  0  0  0  0  0
   29.1059    6.4637  -11.5972 H   0  0  0  0  0  0  0  0  0  0  0  0
   27.4985   10.9810  -10.5462 H   0  0  0  0  0  0  0  0  0  0  0  0
   31.6392   10.4072  -13.4333 H   0  0  0  0  0  0  0  0  0  0  0  0
   24.3665   12.1497   -6.5647 H   0  0  0  0  0  0  0  0  0  0  0  0
   22.7391   13.5550   -8.5395 H   0  0  0  0  0  0  0  0  0  0  0  0
   26.9221   13.6676   -9.5729 H   0  0  0  0  0  0  0  0  0  0  0  0
   22.5222   15.9594   -9.1502 H   0  0  0  0  0  0  0  0  0  0  0  0
   24.5093   17.2183   -9.9745 H   0  0  0  0  0  0  0  0  0  0  0  0
   24.9670    9.8743   -5.4242 H   0  0  0  0  0  0  0  0  0  0  0  0
   23.8976    8.8554   -6.4463 H   0  0  0  0  0  0  0  0  0  0  0  0
   25.6721    8.5763   -6.4463 H   0  0  0  0  0  0  0  0  0  0  0  0
   29.5736   12.3707  -11.0336 H   0  0  0  0  0  0  0  0  0  0  0  0
   30.4604   12.5249  -12.5881 H   0  0  0  0  0  0  0  0  0  0  0  0
   28.6741   12.3354  -12.5881 H   0  0  0  0  0  0  0  0  0  0  0  0
  5  1  1  0
  5 11  1  0
  1  7  1  0
  1  2  2  0
  2  3  1  0
  3  4  1  0
  4  8  2  0
  4  6  1  0
  6 10  1  0
  6  7  2  0
  8  9  1  0
  9 10  2  0
 10 23  1  0
 11 12  2  0
 11 15  1  0
 12 13  1  0
 13 16  1  0
 13 14  1  0
 14 15  2  0
 15 22  1  0
 16 18  1  0
 16 17  2  0
 17 19  1  0
 18 21  2  0
 19 20  2  0
 20 21  1  0
  2 24  1  0
  3 25  1  0
  7 26  1  0
  9 27  1  0
 14 28  1  0
 17 29  1  0
 18 30  1  0
 19 31  1  0
 20 32  1  0
 22 33  1  1
 22 34  1  0
 22 35  1  0
 23 36  1  1
 23 37  1  0
 23 38  1  0
M  END
>  <Pose ID>  (109)
265

>  <Score>  (109)
-7.013454914093018

>  <smiles>  (109)
Cc1cnc2[nH]cc(Oc3nn(-c4cccnc4)cc3C)cc1-2

$$$$

     RDKit          3D

 37 40  0  0  0  0  0  0  0  0999 V2000
   28.1640    7.8670  -10.4760 C   0  0  0  0  0  0  0  0  0  0  0  0
   29.1680    7.1260  -11.0880 C   0  0  0  0  0  0  0  0  0  0  0  0
   30.0660    7.7480  -11.9440 N   0  0  0  0  0  0  0  0  0  0  0  0
   29.9650    9.1130  -12.1890 C   0  0  0  0  0  0  0  0  0  0  0  0
   27.3090    7.0680   -9.6020 O   0  0  0  0  0  0  0  0  0  0  0  0
   28.9590    9.8550  -11.5780 C   0  0  0  0  0  0  0  0  0  0  0  0
   28.0610    9.2310  -10.7200 C   0  0  0  0  0  0  0  0  0  0  0  0
   30.7030    9.9290  -12.9660 N   0  0  0  0  0  0  0  0  0  0  0  0
   30.1940   11.2050  -12.8790 C   0  0  0  0  0  0  0  0  0  0  0  0
   29.1180   10.9900  -11.9900 C   0  0  0  0  0  0  0  0  0  0  0  0
   26.4270    7.6110   -8.6590 C   0  0  0  0  0  0  0  0  0  0  0  0
   25.6340    8.6680   -9.0700 N   0  0  0  0  0  0  0  0  0  0  0  0
   24.8980    9.0470   -8.0170 N   0  0  0  0  0  0  0  0  0  0  0  0
   25.1540    8.2570   -6.9040 C   0  0  0  0  0  0  0  0  0  0  0  0
   26.0820    7.3960   -7.3370 C   0  0  0  0  0  0  0  0  0  0  0  0
   23.9580   10.0670   -7.9420 C   0  0  0  0  0  0  0  0  0  0  0  0
   23.2740   10.2970   -6.7540 N   0  0  0  0  0  0  0  0  0  0  0  0
   23.5310    9.5060   -5.6400 C   0  0  0  0  0  0  0  0  0  0  0  0
   24.4720    8.4860   -5.7150 C   0  0  0  0  0  0  0  0  0  0  0  0
   22.7890    9.7560   -4.3500 C   0  0  1  0  0  0  0  0  0  0  0  0
   28.2060   12.1160  -11.5690 C   0  0  1  0  0  0  0  0  0  0  0  0
   26.9320   12.0730  -12.4320 C   0  0  1  0  0  0  0  0  0  0  0  0
   29.2509    6.0464  -10.8939 H   0  0  0  0  0  0  0  0  0  0  0  0
   30.8085    7.1976  -12.3986 H   0  0  0  0  0  0  0  0  0  0  0  0
   27.2678    9.8177  -10.2336 H   0  0  0  0  0  0  0  0  0  0  0  0
   30.5309   12.1322  -13.3656 H   0  0  0  0  0  0  0  0  0  0  0  0
   26.5216    6.6052   -6.7113 H   0  0  0  0  0  0  0  0  0  0  0  0
   23.7548   10.6931   -8.8233 H   0  0  0  0  0  0  0  0  0  0  0  0
   24.6768    7.8603   -4.8338 H   0  0  0  0  0  0  0  0  0  0  0  0
   23.4489    9.5337   -3.4984 H   0  0  0  0  0  0  0  0  0  0  0  0
   22.4754   10.8094   -4.3056 H   0  0  0  0  0  0  0  0  0  0  0  0
   21.9019    9.1071   -4.3056 H   0  0  0  0  0  0  0  0  0  0  0  0
   27.9382   11.9978  -10.5087 H   0  0  0  0  0  0  0  0  0  0  0  0
   28.7167   13.0807  -11.7050 H   0  0  0  0  0  0  0  0  0  0  0  0
   26.0475   12.0431  -11.7788 H   0  0  0  0  0  0  0  0  0  0  0  0
   26.8888   12.9702  -13.0670 H   0  0  0  0  0  0  0  0  0  0  0  0
   26.9494   11.1749  -13.0670 H   0  0  0  0  0  0  0  0  0  0  0  0
  1  2  2  0
  1  7  1  0
  1  5  1  0
  2  3  1  0
  3  4  1  0
  4  8  2  0
  4  6  1  0
  6 10  1  0
  6  7  2  0
  8  9  1  0
  9 10  2  0
 10 21  1  0
 21 22  1  0
  5 11  1  0
 11 12  2  0
 11 15  1  0
 12 13  1  0
 13 16  1  0
 13 14  1  0
 14 15  2  0
 14 19  1  0
 16 17  2  0
 17 18  1  0
 18 19  2  0
 18 20  1  0
  2 23  1  0
  3 24  1  0
  7 25  1  0
  9 26  1  0
 15 27  1  0
 16 28  1  0
 19 29  1  0
 20 30  1  1
 20 31  1  0
 20 32  1  0
 21 33  1  1
 21 34  1  0
 22 35  1  1
 22 36  1  0
 22 37  1  0
M  END
>  <Pose ID>  (110)
303

>  <Score>  (110)
-7.013209819793701

>  <smiles>  (110)
CCc1cnc2[nH]cc(Oc3cc4cc(C)ncn4n3)cc1-2

$$$$

     RDKit          3D

 32 35  0  0  0  0  0  0  0  0999 V2000
   28.0160    7.9010  -10.3500 C   0  0  0  0  0  0  0  0  0  0  0  0
   28.9760    7.1530  -11.0180 C   0  0  0  0  0  0  0  0  0  0  0  0
   29.8510    7.7720  -11.9030 N   0  0  0  0  0  0  0  0  0  0  0  0
   29.7670    9.1420  -12.1190 C   0  0  0  0  0  0  0  0  0  0  0  0
   27.1820    7.1060   -9.4530 O   0  0  0  0  0  0  0  0  0  0  0  0
   28.8050    9.8930  -11.4510 C   0  0  0  0  0  0  0  0  0  0  0  0
   27.9320    9.2720  -10.5650 C   0  0  0  0  0  0  0  0  0  0  0  0
   30.4880    9.9560  -12.9130 N   0  0  0  0  0  0  0  0  0  0  0  0
   30.0700   11.1360  -12.8030 C   0  0  0  0  0  0  0  0  0  0  0  0
   29.0070   11.1390  -11.9090 C   0  0  0  0  0  0  0  0  0  0  0  0
   26.3560    7.6470   -8.4630 C   0  0  0  0  0  0  0  0  0  0  0  0
   25.5670    8.7280   -8.8220 N   0  0  0  0  0  0  0  0  0  0  0  0
   24.8560    9.1250   -7.7040 N   0  0  0  0  0  0  0  0  0  0  0  0
   25.1790    8.3140   -6.6860 C   0  0  0  0  0  0  0  0  0  0  0  0
   26.0630    7.4150   -7.1310 C   0  0  0  0  0  0  0  0  0  0  0  0
   23.9430   10.2380   -7.7660 C   0  0  1  0  0  0  0  0  0  0  0  0
   30.4740   12.3200  -13.4090 C   0  0  0  0  0  0  0  0  0  0  0  0
   29.8150   13.5090  -13.1190 C   0  0  0  0  0  0  0  0  0  0  0  0
   28.7520   13.5130  -12.2230 C   0  0  0  0  0  0  0  0  0  0  0  0
   28.3480   12.3280  -11.6180 C   0  0  0  0  0  0  0  0  0  0  0  0
   29.0443    6.0686  -10.8466 H   0  0  0  0  0  0  0  0  0  0  0  0
   30.5617    7.2151  -12.3987 H   0  0  0  0  0  0  0  0  0  0  0  0
   27.1740    9.8660  -10.0335 H   0  0  0  0  0  0  0  0  0  0  0  0
   24.7845    8.3775   -5.6611 H   0  0  0  0  0  0  0  0  0  0  0  0
   26.4958    6.6059   -6.5243 H   0  0  0  0  0  0  0  0  0  0  0  0
   23.6824   10.5557   -6.7456 H   0  0  0  0  0  0  0  0  0  0  0  0
   24.4192   11.0736   -8.2998 H   0  0  0  0  0  0  0  0  0  0  0  0
   23.0304    9.9344   -8.2998 H   0  0  0  0  0  0  0  0  0  0  0  0
   31.3151   12.3160  -14.1179 H   0  0  0  0  0  0  0  0  0  0  0  0
   30.1344   14.4462  -13.5982 H   0  0  0  0  0  0  0  0  0  0  0  0
   28.2305   14.4537  -11.9926 H   0  0  0  0  0  0  0  0  0  0  0  0
   27.5069   12.3314  -10.9091 H   0  0  0  0  0  0  0  0  0  0  0  0
  1  2  2  0
  1  7  1  0
  1  5  1  0
  2  3  1  0
  3  4  1  0
  4  8  2  0
  4  6  1  0
  6 10  1  0
  6  7  2  0
  8  9  1  0
  9 17  1  0
  9 10  2  0
 10 20  1  0
 17 18  2  0
 18 19  1  0
 19 20  2  0
  5 11  1  0
 11 12  2  0
 11 15  1  0
 12 13  1  0
 13 16  1  0
 13 14  1  0
 14 15  2  0
  2 21  1  0
  3 22  1  0
  7 23  1  0
 14 24  1  0
 15 25  1  0
 16 26  1  1
 16 27  1  0
 16 28  1  0
 17 29  1  0
 18 30  1  0
 19 31  1  0
 20 32  1  0
M  END
>  <Pose ID>  (111)
495

>  <Score>  (111)
-7.012462139129639

>  <smiles>  (111)
Cn1ccc(Oc2c[nH]c3nc4ccccc4c-3c2)n1

$$$$

     RDKit          3D

 37 40  0  0  0  0  0  0  0  0999 V2000
   27.9890    7.8760  -10.3340 C   0  0  0  0  0  0  0  0  0  0  0  0
   28.9430    7.1410  -11.0240 C   0  0  0  0  0  0  0  0  0  0  0  0
   29.8060    7.7770  -11.9110 N   0  0  0  0  0  0  0  0  0  0  0  0
   29.7130    9.1500  -12.1070 C   0  0  0  0  0  0  0  0  0  0  0  0
   27.1700    7.0650   -9.4380 O   0  0  0  0  0  0  0  0  0  0  0  0
   28.7570    9.8860  -11.4150 C   0  0  0  0  0  0  0  0  0  0  0  0
   27.8960    9.2490  -10.5280 C   0  0  0  0  0  0  0  0  0  0  0  0
   30.4210    9.9780  -12.8970 N   0  0  0  0  0  0  0  0  0  0  0  0
   29.9960   11.1580  -12.7640 C   0  0  0  0  0  0  0  0  0  0  0  0
   28.9410   11.1530  -11.8610 C   0  0  0  0  0  0  0  0  0  0  0  0
   26.3540    7.5890   -8.4300 C   0  0  0  0  0  0  0  0  0  0  0  0
   25.5570    8.6720   -8.7630 N   0  0  0  0  0  0  0  0  0  0  0  0
   24.8570    9.0500   -7.6310 N   0  0  0  0  0  0  0  0  0  0  0  0
   25.1970    8.2270   -6.6290 C   0  0  0  0  0  0  0  0  0  0  0  0
   26.0790    7.3360   -7.0980 C   0  0  0  0  0  0  0  0  0  0  0  0
   23.9400   10.1610   -7.6660 C   0  0  2  0  0  0  0  0  0  0  0  0
   30.3970   12.3480  -13.3580 C   0  0  0  0  0  0  0  0  0  0  0  0
   29.7390   13.5330  -13.0520 C   0  0  0  0  0  0  0  0  0  0  0  0
   28.6830   13.5290  -12.1500 C   0  0  0  0  0  0  0  0  0  0  0  0
   28.2840   12.3380  -11.5530 N   0  0  0  0  0  0  0  0  0  0  0  0
   24.5240   11.6270   -8.0540 C   0  0  1  0  0  0  0  0  0  0  0  0
   22.9860   10.2300   -6.3520 C   0  0  1  0  0  0  0  0  0  0  0  0
   29.0169    6.0544  -10.8694 H   0  0  0  0  0  0  0  0  0  0  0  0
   30.5137    7.2305  -12.4223 H   0  0  0  0  0  0  0  0  0  0  0  0
   27.1412    9.8320   -9.9798 H   0  0  0  0  0  0  0  0  0  0  0  0
   24.8164    8.2755   -5.5981 H   0  0  0  0  0  0  0  0  0  0  0  0
   26.5218    6.5195   -6.5087 H   0  0  0  0  0  0  0  0  0  0  0  0
   23.3337    9.9035   -8.5470 H   0  0  0  0  0  0  0  0  0  0  0  0
   31.2352   12.3522  -14.0704 H   0  0  0  0  0  0  0  0  0  0  0  0
   30.0547   14.4748  -13.5245 H   0  0  0  0  0  0  0  0  0  0  0  0
   28.1625   14.4673  -11.9079 H   0  0  0  0  0  0  0  0  0  0  0  0
   24.7474   12.1878   -7.1344 H   0  0  0  0  0  0  0  0  0  0  0  0
   25.4443   11.5104   -8.6451 H   0  0  0  0  0  0  0  0  0  0  0  0
   23.7756   12.1751   -8.6451 H   0  0  0  0  0  0  0  0  0  0  0  0
   23.6071   10.1851   -5.4452 H   0  0  0  0  0  0  0  0  0  0  0  0
   22.4174   11.1716   -6.3607 H   0  0  0  0  0  0  0  0  0  0  0  0
   22.2878    9.3800   -6.3607 H   0  0  0  0  0  0  0  0  0  0  0  0
  1  2  2  0
  1  7  1  0
  1  5  1  0
  2  3  1  0
  3  4  1  0
  4  8  2  0
  4  6  1  0
  6 10  1  0
  6  7  2  0
  8  9  1  0
  9 17  1  0
  9 10  2  0
 10 20  1  0
 17 18  2  0
 18 19  1  0
 19 20  2  0
  5 11  1  0
 11 12  2  0
 11 15  1  0
 12 13  1  0
 13 16  1  0
 13 14  1  0
 14 15  2  0
 16 21  1  0
 16 22  1  0
  2 23  1  0
  3 24  1  0
  7 25  1  0
 14 26  1  0
 15 27  1  0
 16 28  1  6
 17 29  1  0
 18 30  1  0
 19 31  1  0
 21 32  1  1
 21 33  1  0
 21 34  1  0
 22 35  1  1
 22 36  1  0
 22 37  1  0
M  END
>  <Pose ID>  (112)
514

>  <Score>  (112)
-7.000326633453369

>  <smiles>  (112)
CC(C)n1ccc(Oc2c[nH]c3nc4cccnc4c-3c2)n1

$$$$

     RDKit          3D

 37 40  0  0  0  0  0  0  0  0999 V2000
   27.9500    7.8360  -10.2740 C   0  0  0  0  0  0  0  0  0  0  0  0
   28.9620    7.1270  -10.9110 C   0  0  0  0  0  0  0  0  0  0  0  0
   29.8060    7.7730  -11.8040 N   0  0  0  0  0  0  0  0  0  0  0  0
   29.6420    9.1300  -12.0620 C   0  0  0  0  0  0  0  0  0  0  0  0
   27.1570    7.0160   -9.3620 O   0  0  0  0  0  0  0  0  0  0  0  0
   28.6290    9.8400  -11.4250 C   0  0  0  0  0  0  0  0  0  0  0  0
   27.7860    9.1910  -10.5300 C   0  0  0  0  0  0  0  0  0  0  0  0
   30.3210    9.9640  -12.8720 N   0  0  0  0  0  0  0  0  0  0  0  0
   29.7640   11.2190  -12.7830 C   0  0  0  0  0  0  0  0  0  0  0  0
   28.7280   10.9740  -11.8560 C   0  0  0  0  0  0  0  0  0  0  0  0
   26.2870    7.5360   -8.3950 C   0  0  0  0  0  0  0  0  0  0  0  0
   25.4390    8.5550   -8.7910 N   0  0  0  0  0  0  0  0  0  0  0  0
   24.7250    8.9190   -7.7180 N   0  0  0  0  0  0  0  0  0  0  0  0
   25.0500    8.1540   -6.6050 C   0  0  0  0  0  0  0  0  0  0  0  0
   25.9950    7.3250   -7.0600 C   0  0  0  0  0  0  0  0  0  0  0  0
   23.7480    9.9040   -7.6230 C   0  0  0  0  0  0  0  0  0  0  0  0
   23.0970   10.1210   -6.4150 N   0  0  0  0  0  0  0  0  0  0  0  0
   23.4220    9.3560   -5.3010 C   0  0  0  0  0  0  0  0  0  0  0  0
   24.3990    8.3730   -5.3960 C   0  0  0  0  0  0  0  0  0  0  0  0
   30.1530   12.5000  -13.4800 C   0  0  1  0  0  0  0  0  0  0  0  0
   29.6480   13.7620  -12.9550 C   0  0  1  0  0  0  0  0  0  0  0  0
   30.0660   13.9260  -11.4540 C   0  0  1  0  0  0  0  0  0  0  0  0
   29.0940    6.0541  -10.7074 H   0  0  0  0  0  0  0  0  0  0  0  0
   30.5549    7.2466  -12.2763 H   0  0  0  0  0  0  0  0  0  0  0  0
   26.9871    9.7523  -10.0234 H   0  0  0  0  0  0  0  0  0  0  0  0
   28.0411   11.7720  -11.5375 H   0  0  0  0  0  0  0  0  0  0  0  0
   26.4859    6.5597   -6.4409 H   0  0  0  0  0  0  0  0  0  0  0  0
   23.4908   10.5109   -8.5036 H   0  0  0  0  0  0  0  0  0  0  0  0
   22.9061    9.5288   -4.3450 H   0  0  0  0  0  0  0  0  0  0  0  0
   24.6577    7.7678   -4.5146 H   0  0  0  0  0  0  0  0  0  0  0  0
   31.2513   12.5580  -13.4622 H   0  0  0  0  0  0  0  0  0  0  0  0
   29.6862   12.4171  -14.4726 H   0  0  0  0  0  0  0  0  0  0  0  0
   30.0655   14.5934  -13.5419 H   0  0  0  0  0  0  0  0  0  0  0  0
   28.5503   13.7682  -13.0260 H   0  0  0  0  0  0  0  0  0  0  0  0
   29.2389   13.6015  -10.8055 H   0  0  0  0  0  0  0  0  0  0  0  0
   30.9543   13.3097  -11.2513 H   0  0  0  0  0  0  0  0  0  0  0  0
   30.2983   14.9819  -11.2513 H   0  0  0  0  0  0  0  0  0  0  0  0
  1  2  2  0
  1  7  1  0
  1  5  1  0
  2  3  1  0
  3  4  1  0
  4  8  2  0
  4  6  1  0
  6 10  1  0
  6  7  2  0
  8  9  1  0
  9 20  1  0
  9 10  2  0
  5 11  1  0
 11 12  2  0
 11 15  1  0
 12 13  1  0
 13 16  1  0
 13 14  1  0
 14 15  2  0
 14 19  1  0
 16 17  2  0
 17 18  1  0
 18 19  2  0
 20 21  1  0
 21 22  1  0
  2 23  1  0
  3 24  1  0
  7 25  1  0
 10 26  1  0
 15 27  1  0
 16 28  1  0
 18 29  1  0
 19 30  1  0
 20 31  1  6
 20 32  1  0
 21 33  1  6
 21 34  1  0
 22 35  1  1
 22 36  1  0
 22 37  1  0
M  END
>  <Pose ID>  (113)
289

>  <Score>  (113)
-6.99520206451416

>  <smiles>  (113)
CCCc1cc2cc(Oc3cc4ccncn4n3)c[nH]c-2n1

$$$$

     RDKit          3D

 36 39  0  0  0  0  0  0  0  0999 V2000
   27.3580    7.9880  -10.1640 C   0  0  0  0  0  0  0  0  0  0  0  0
   28.4440    7.2010  -10.5160 C   0  0  0  0  0  0  0  0  0  0  0  0
   29.4260    7.7100  -11.3570 N   0  0  0  0  0  0  0  0  0  0  0  0
   26.5560    7.2900   -9.3420 N   0  0  0  0  0  0  0  0  0  0  0  0
   29.3200    9.0060  -11.8460 C   0  0  0  0  0  0  0  0  0  0  0  0
   28.2310    9.7930  -11.4930 C   0  0  0  0  0  0  0  0  0  0  0  0
   27.2500    9.2870  -10.6520 C   0  0  0  0  0  0  0  0  0  0  0  0
   30.1290    9.7080  -12.6590 N   0  0  0  0  0  0  0  0  0  0  0  0
   29.5850   10.9570  -12.8520 C   0  0  0  0  0  0  0  0  0  0  0  0
   28.4120   10.8480  -12.0750 C   0  0  0  0  0  0  0  0  0  0  0  0
   26.0030    7.8370   -8.1450 C   0  0  0  0  0  0  0  0  0  0  0  0
   25.3590    6.9770   -7.2640 N   0  0  0  0  0  0  0  0  0  0  0  0
   24.7060    7.4850   -6.1470 C   0  0  0  0  0  0  0  0  0  0  0  0
   24.6950    8.8540   -5.9140 C   0  0  0  0  0  0  0  0  0  0  0  0
   25.3370    9.7170   -6.7950 C   0  0  0  0  0  0  0  0  0  0  0  0
   26.0170    9.2020   -7.8960 C   0  0  0  0  0  0  0  0  0  0  0  0
   23.9970    6.8400   -5.1290 C   0  0  0  0  0  0  0  0  0  0  0  0
   23.6900    7.8220   -4.2130 N   0  0  0  0  0  0  0  0  0  0  0  0
   24.0950    9.0030   -4.5550 C   0  0  0  0  0  0  0  0  0  0  0  0
   25.2980   11.2070   -6.5610 C   0  0  1  0  0  0  0  0  0  0  0  0
   27.4260   11.9860  -11.9700 C   0  0  1  0  0  0  0  0  0  0  0  0
   28.5281    6.1745  -10.1297 H   0  0  0  0  0  0  0  0  0  0  0  0
   30.2332    7.1259  -11.6181 H   0  0  0  0  0  0  0  0  0  0  0  0
   26.3299    6.3154   -9.5870 H   0  0  0  0  0  0  0  0  0  0  0  0
   26.3888    9.9113  -10.3716 H   0  0  0  0  0  0  0  0  0  0  0  0
   29.9597   11.8037  -13.4459 H   0  0  0  0  0  0  0  0  0  0  0  0
   25.3655    5.9620   -7.4388 H   0  0  0  0  0  0  0  0  0  0  0  0
   26.5655    9.8778   -8.5686 H   0  0  0  0  0  0  0  0  0  0  0  0
   23.7386    5.7723   -5.0716 H   0  0  0  0  0  0  0  0  0  0  0  0
   24.0137    9.9277   -3.9648 H   0  0  0  0  0  0  0  0  0  0  0  0
   25.2927   11.4083   -5.4796 H   0  0  0  0  0  0  0  0  0  0  0  0
   26.1843   11.6730   -7.0164 H   0  0  0  0  0  0  0  0  0  0  0  0
   24.3886   11.6260   -7.0164 H   0  0  0  0  0  0  0  0  0  0  0  0
   27.2337   12.2079  -10.9099 H   0  0  0  0  0  0  0  0  0  0  0  0
   27.8417   12.8778  -12.4618 H   0  0  0  0  0  0  0  0  0  0  0  0
   26.4841   11.7016  -12.4618 H   0  0  0  0  0  0  0  0  0  0  0  0
  4  1  1  0
  4 11  1  0
  1  7  1  0
  1  2  2  0
  2  3  1  0
  3  5  1  0
  5  8  2  0
  5  6  1  0
  6 10  1  0
  6  7  2  0
  8  9  1  0
  9 10  2  0
 10 21  1  0
 11 16  2  0
 11 12  1  0
 12 13  1  0
 13 14  1  0
 13 17  2  0
 14 15  2  0
 14 19  1  0
 15 16  1  0
 15 20  1  0
 17 18  1  0
 18 19  2  0
  2 22  1  0
  3 23  1  0
  4 24  1  0
  7 25  1  0
  9 26  1  0
 12 27  1  0
 16 28  1  0
 17 29  1  0
 19 30  1  0
 20 31  1  1
 20 32  1  0
 20 33  1  0
 21 34  1  1
 21 35  1  0
 21 36  1  0
M  END
>  <Pose ID>  (114)
82

>  <Score>  (114)
-6.986800193786621

>  <smiles>  (114)
Cc1cc(Nc2c[nH]c3ncc(C)c-3c2)[nH]c2cncc1-2

$$$$

     RDKit          3D

 38 41  0  0  0  0  0  0  0  0999 V2000
   28.0330    7.8720  -10.3580 C   0  0  0  0  0  0  0  0  0  0  0  0
   29.0080    7.1380  -11.0230 C   0  0  0  0  0  0  0  0  0  0  0  0
   29.8720    7.7720  -11.9060 N   0  0  0  0  0  0  0  0  0  0  0  0
   29.7660    9.1410  -12.1240 C   0  0  0  0  0  0  0  0  0  0  0  0
   27.2110    7.0600   -9.4610 O   0  0  0  0  0  0  0  0  0  0  0  0
   28.7900    9.8750  -11.4560 C   0  0  0  0  0  0  0  0  0  0  0  0
   27.9270    9.2390  -10.5740 C   0  0  0  0  0  0  0  0  0  0  0  0
   30.4740    9.9670  -12.9160 N   0  0  0  0  0  0  0  0  0  0  0  0
   30.0990   11.0600  -12.8240 C   0  0  0  0  0  0  0  0  0  0  0  0
   29.0090   11.0520  -11.9620 C   0  0  0  0  0  0  0  0  0  0  0  0
   26.3740    7.5890   -8.4750 C   0  0  0  0  0  0  0  0  0  0  0  0
   25.5670    8.6560   -8.8330 N   0  0  0  0  0  0  0  0  0  0  0  0
   24.8470    9.0420   -7.7180 N   0  0  0  0  0  0  0  0  0  0  0  0
   25.1810    8.2370   -6.6990 C   0  0  0  0  0  0  0  0  0  0  0  0
   26.0820    7.3530   -7.1410 C   0  0  0  0  0  0  0  0  0  0  0  0
   23.9140   10.1380   -7.7820 C   0  0  2  0  0  0  0  0  0  0  0  0
   30.4940   12.2430  -13.4340 C   0  0  0  0  0  0  0  0  0  0  0  0
   29.7990   13.4210  -13.1840 C   0  0  0  0  0  0  0  0  0  0  0  0
   28.7100   13.4150  -12.3210 C   0  0  0  0  0  0  0  0  0  0  0  0
   28.3140   12.2300  -11.7110 C   0  0  0  0  0  0  0  0  0  0  0  0
   24.4830   11.6080   -8.1800 C   0  0  1  0  0  0  0  0  0  0  0  0
   23.1700   10.4420   -6.4990 C   0  0  1  0  0  0  0  0  0  0  0  0
   29.0952    6.0552  -10.8499 H   0  0  0  0  0  0  0  0  0  0  0  0
   30.5928    7.2270  -12.4004 H   0  0  0  0  0  0  0  0  0  0  0  0
   27.1572    9.8199  -10.0449 H   0  0  0  0  0  0  0  0  0  0  0  0
   24.7824    8.2939   -5.6753 H   0  0  0  0  0  0  0  0  0  0  0  0
   26.5278    6.5525   -6.5323 H   0  0  0  0  0  0  0  0  0  0  0  0
   23.2890    9.7128   -8.5811 H   0  0  0  0  0  0  0  0  0  0  0  0
   31.3574   12.2483  -14.1156 H   0  0  0  0  0  0  0  0  0  0  0  0
   30.1112   14.3575  -13.6693 H   0  0  0  0  0  0  0  0  0  0  0  0
   28.1615   14.3472  -12.1205 H   0  0  0  0  0  0  0  0  0  0  0  0
   27.4505   12.2243  -11.0295 H   0  0  0  0  0  0  0  0  0  0  0  0
   24.7030   12.1763   -7.2642 H   0  0  0  0  0  0  0  0  0  0  0  0
   25.4031   11.4969   -8.7725 H   0  0  0  0  0  0  0  0  0  0  0  0
   23.7279   12.1454   -8.7725 H   0  0  0  0  0  0  0  0  0  0  0  0
   23.8034   10.1832   -5.6377 H   0  0  0  0  0  0  0  0  0  0  0  0
   22.9227   11.5133   -6.4635 H   0  0  0  0  0  0  0  0  0  0  0  0
   22.2433    9.8504   -6.4635 H   0  0  0  0  0  0  0  0  0  0  0  0
  1  2  2  0
  1  7  1  0
  1  5  1  0
  2  3  1  0
  3  4  1  0
  4  8  2  0
  4  6  1  0
  6 10  1  0
  6  7  2  0
  8  9  1  0
  9 17  1  0
  9 10  2  0
 10 20  1  0
 17 18  2  0
 18 19  1  0
 19 20  2  0
  5 11  1  0
 11 12  2  0
 11 15  1  0
 12 13  1  0
 13 16  1  0
 13 14  1  0
 14 15  2  0
 16 21  1  0
 16 22  1  0
  2 23  1  0
  3 24  1  0
  7 25  1  0
 14 26  1  0
 15 27  1  0
 16 28  1  6
 17 29  1  0
 18 30  1  0
 19 31  1  0
 20 32  1  0
 21 33  1  1
 21 34  1  0
 21 35  1  0
 22 36  1  1
 22 37  1  0
 22 38  1  0
M  END
>  <Pose ID>  (115)
532

>  <Score>  (115)
-6.986720561981201

>  <smiles>  (115)
CC(C)n1ccc(Oc2c[nH]c3nc4ccccc4c-3c2)n1

$$$$

     RDKit          3D

 35 37  0  0  0  0  0  0  0  0999 V2000
   28.2950   10.0270  -11.5380 C   0  0  0  0  0  0  0  0  0  0  0  0
   29.0570    8.8650  -11.4880 C   0  0  0  0  0  0  0  0  0  0  0  0
   28.6690    7.7590  -10.7460 N   0  0  0  0  0  0  0  0  0  0  0  0
   27.4570    7.7920  -10.0630 C   0  0  0  0  0  0  0  0  0  0  0  0
   26.6550    8.9260  -10.1290 C   0  0  0  0  0  0  0  0  0  0  0  0
   27.0560   10.0090  -10.8840 C   0  0  0  0  0  0  0  0  0  0  0  0
   27.0920    6.8100   -9.4020 O   0  0  0  0  0  0  0  0  0  0  0  0
   30.2730    8.8030  -12.1600 N   0  0  0  0  0  0  0  0  0  0  0  0
   30.7220    9.8990  -12.8850 C   0  0  0  0  0  0  0  0  0  0  0  0
   29.9580   11.0590  -12.9360 C   0  0  0  0  0  0  0  0  0  0  0  0
   28.7400   11.1210  -12.2510 C   0  0  0  0  0  0  0  0  0  0  0  0
   25.4470    9.2060   -9.5420 N   0  0  0  0  0  0  0  0  0  0  0  0
   25.2700    9.2060   -8.0600 C   0  0  0  0  0  0  0  0  0  0  0  0
   24.6220    8.1200   -7.4850 C   0  0  0  0  0  0  0  0  0  0  0  0
   24.4270    8.0740   -6.1090 C   0  0  0  0  0  0  0  0  0  0  0  0
   24.8810    9.1170   -5.3100 C   0  0  0  0  0  0  0  0  0  0  0  0
   25.5280   10.2040   -5.8830 C   0  0  0  0  0  0  0  0  0  0  0  0
   25.7230   10.2490   -7.2580 N   0  0  0  0  0  0  0  0  0  0  0  0
   27.8210   12.1390  -12.1360 O   0  0  0  0  0  0  0  0  0  0  0  0
   27.7920   13.3810  -12.9010 C   0  0  1  0  0  0  0  0  0  0  0  0
   23.7230    6.8950   -5.4850 C   0  0  1  0  0  0  0  0  0  0  0  0
   29.2703    6.9240  -10.7012 H   0  0  0  0  0  0  0  0  0  0  0  0
   26.3878   10.8781  -10.9745 H   0  0  0  0  0  0  0  0  0  0  0  0
   31.6824    9.8491  -13.4190 H   0  0  0  0  0  0  0  0  0  0  0  0
   30.3104   11.9262  -13.5137 H   0  0  0  0  0  0  0  0  0  0  0  0
   24.6382    9.4226  -10.1419 H   0  0  0  0  0  0  0  0  0  0  0  0
   24.2629    7.2958   -8.1188 H   0  0  0  0  0  0  0  0  0  0  0  0
   24.7274    9.0812   -4.2214 H   0  0  0  0  0  0  0  0  0  0  0  0
   25.8858   11.0286   -5.2489 H   0  0  0  0  0  0  0  0  0  0  0  0
   27.7720   14.2368  -12.2102 H   0  0  0  0  0  0  0  0  0  0  0  0
   28.6890   13.4423  -13.5348 H   0  0  0  0  0  0  0  0  0  0  0  0
   26.8932   13.4004  -13.5348 H   0  0  0  0  0  0  0  0  0  0  0  0
   23.7718    6.9768   -4.3891 H   0  0  0  0  0  0  0  0  0  0  0  0
   22.6707    6.8847   -5.8054 H   0  0  0  0  0  0  0  0  0  0  0  0
   24.2130    5.9637   -5.8054 H   0  0  0  0  0  0  0  0  0  0  0  0
  1 11  1  0
  1  2  2  0
  1  6  1  0
  2  8  1  0
  2  3  1  0
  3  4  1  0
  4  5  1  0
  4  7  2  0
  5  6  2  0
  5 12  1  0
  8  9  2  0
  9 10  1  0
 10 11  2  0
 11 19  1  0
 12 13  1  0
 13 14  2  0
 13 18  1  0
 14 15  1  0
 15 21  1  0
 15 16  2  0
 16 17  1  0
 17 18  2  0
 19 20  1  0
  3 22  1  0
  6 23  1  0
  9 24  1  0
 10 25  1  0
 12 26  1  0
 14 27  1  0
 16 28  1  0
 17 29  1  0
 20 30  1  1
 20 31  1  0
 20 32  1  0
 21 33  1  1
 21 34  1  0
 21 35  1  0
M  END
>  <Pose ID>  (116)
173

>  <Score>  (116)
-6.982228755950928

>  <smiles>  (116)
COc1ccnc2[nH]c(=O)c(Nc3cc(C)ccn3)cc12

$$$$

     RDKit          3D

 38 41  0  0  0  0  0  0  0  0999 V2000
   27.1290    8.3460   -9.9040 C   0  0  0  0  0  0  0  0  0  0  0  0
   27.6960    7.2390  -10.5230 C   0  0  0  0  0  0  0  0  0  0  0  0
   28.7120    7.4080  -11.4550 N   0  0  0  0  0  0  0  0  0  0  0  0
   29.1650    8.6840  -11.7690 C   0  0  0  0  0  0  0  0  0  0  0  0
   26.0830    7.9990   -8.9470 O   0  0  0  0  0  0  0  0  0  0  0  0
   28.5940    9.7940  -11.1480 C   0  0  0  0  0  0  0  0  0  0  0  0
   27.5790    9.6230  -10.2150 C   0  0  0  0  0  0  0  0  0  0  0  0
   30.1210    9.1010  -12.6220 N   0  0  0  0  0  0  0  0  0  0  0  0
   30.1870   10.4740  -12.5790 C   0  0  0  0  0  0  0  0  0  0  0  0
   29.1790   10.7500  -11.6280 C   0  0  0  0  0  0  0  0  0  0  0  0
   25.5670    8.8830   -7.9920 C   0  0  0  0  0  0  0  0  0  0  0  0
   25.2510   10.1610   -8.4220 N   0  0  0  0  0  0  0  0  0  0  0  0
   24.7920   10.8760   -7.3310 N   0  0  0  0  0  0  0  0  0  0  0  0
   24.8080   10.0690   -6.2590 C   0  0  0  0  0  0  0  0  0  0  0  0
   25.2530    8.8700   -6.6450 C   0  0  0  0  0  0  0  0  0  0  0  0
   24.3930   12.1480   -7.3560 C   0  0  0  0  0  0  0  0  0  0  0  0
   24.4070   12.9160   -8.5140 C   0  0  0  0  0  0  0  0  0  0  0  0
   23.6690   12.5740   -6.2480 N   0  0  0  0  0  0  0  0  0  0  0  0
   23.6960   14.1090   -8.5660 C   0  0  0  0  0  0  0  0  0  0  0  0
   22.9580   13.7680   -6.3000 C   0  0  0  0  0  0  0  0  0  0  0  0
   22.9450   14.5330   -7.4690 C   0  0  0  0  0  0  0  0  0  0  0  0
   24.3920   10.4510   -4.8600 C   0  0  1  0  0  0  0  0  0  0  0  0
   28.8420   12.1640  -11.2230 C   0  0  1  0  0  0  0  0  0  0  0  0
   27.3402    6.2281  -10.2749 H   0  0  0  0  0  0  0  0  0  0  0  0
   29.1304    6.5864  -11.9142 H   0  0  0  0  0  0  0  0  0  0  0  0
   27.1316   10.4989   -9.7224 H   0  0  0  0  0  0  0  0  0  0  0  0
   30.8417   11.1645  -13.1309 H   0  0  0  0  0  0  0  0  0  0  0  0
   25.3552    7.9960   -5.9850 H   0  0  0  0  0  0  0  0  0  0  0  0
   24.9811   12.5795   -9.3899 H   0  0  0  0  0  0  0  0  0  0  0  0
   23.7255   14.7232   -9.4781 H   0  0  0  0  0  0  0  0  0  0  0  0
   22.4024   14.1123   -5.4153 H   0  0  0  0  0  0  0  0  0  0  0  0
   22.3508   15.4571   -7.5239 H   0  0  0  0  0  0  0  0  0  0  0  0
   24.9992    9.8934   -4.1318 H   0  0  0  0  0  0  0  0  0  0  0  0
   24.5442   11.5306   -4.7141 H   0  0  0  0  0  0  0  0  0  0  0  0
   23.3293   10.2075   -4.7141 H   0  0  0  0  0  0  0  0  0  0  0  0
   28.8246   12.2368  -10.1256 H   0  0  0  0  0  0  0  0  0  0  0  0
   29.6015   12.8512  -11.6241 H   0  0  0  0  0  0  0  0  0  0  0  0
   27.8542   12.4348  -11.6241 H   0  0  0  0  0  0  0  0  0  0  0  0
  5  1  1  0
  5 11  1  0
  1  2  2  0
  1  7  1  0
  2  3  1  0
  3  4  1  0
  4  8  2  0
  4  6  1  0
  6 10  1  0
  6  7  2  0
  8  9  1  0
  9 10  2  0
 10 23  1  0
 11 12  2  0
 11 15  1  0
 12 13  1  0
 13 16  1  0
 13 14  1  0
 14 15  2  0
 14 22  1  0
 16 17  2  0
 16 18  1  0
 17 19  1  0
 18 20  2  0
 19 21  2  0
 20 21  1  0
  2 24  1  0
  3 25  1  0
  7 26  1  0
  9 27  1  0
 15 28  1  0
 17 29  1  0
 19 30  1  0
 20 31  1  0
 21 32  1  0
 22 33  1  1
 22 34  1  0
 22 35  1  0
 23 36  1  1
 23 37  1  0
 23 38  1  0
M  END
>  <Pose ID>  (117)
447

>  <Score>  (117)
-6.963578701019287

>  <smiles>  (117)
Cc1cnc2[nH]cc(Oc3cc(C)n(-c4ccccn4)n3)cc1-2

$$$$

     RDKit          3D

 38 40  0  0  0  0  0  0  0  0999 V2000
   28.2690    9.9660  -11.5870 C   0  0  0  0  0  0  0  0  0  0  0  0
   29.0600    8.8290  -11.4570 C   0  0  0  0  0  0  0  0  0  0  0  0
   28.6800    7.7530  -10.6680 N   0  0  0  0  0  0  0  0  0  0  0  0
   27.4510    7.7870  -10.0200 C   0  0  0  0  0  0  0  0  0  0  0  0
   26.6200    8.8930  -10.1660 C   0  0  0  0  0  0  0  0  0  0  0  0
   27.0130    9.9470  -10.9660 C   0  0  0  0  0  0  0  0  0  0  0  0
   27.0930    6.8300   -9.3170 O   0  0  0  0  0  0  0  0  0  0  0  0
   30.2960    8.7670  -12.0930 N   0  0  0  0  0  0  0  0  0  0  0  0
   30.7350    9.8360  -12.8620 C   0  0  0  0  0  0  0  0  0  0  0  0
   29.9420   10.9700  -12.9930 C   0  0  0  0  0  0  0  0  0  0  0  0
   28.7050   11.0330  -12.3430 C   0  0  0  0  0  0  0  0  0  0  0  0
   25.3900    9.1690   -9.6260 N   0  0  0  0  0  0  0  0  0  0  0  0
   25.1720    9.2410   -8.1510 C   0  0  0  0  0  0  0  0  0  0  0  0
   24.5380    8.1690   -7.5370 C   0  0  0  0  0  0  0  0  0  0  0  0
   24.3050    8.1890   -6.1660 C   0  0  0  0  0  0  0  0  0  0  0  0
   24.7100    9.2830   -5.4100 C   0  0  0  0  0  0  0  0  0  0  0  0
   25.3430   10.3560   -6.0240 C   0  0  0  0  0  0  0  0  0  0  0  0
   25.5750   10.3350   -7.3930 N   0  0  0  0  0  0  0  0  0  0  0  0
   27.7560   12.0300  -12.3060 O   0  0  0  0  0  0  0  0  0  0  0  0
   27.7160   13.2290  -13.1360 C   0  0  1  0  0  0  0  0  0  0  0  0
   25.7780   11.5440   -5.2030 C   0  0  1  0  0  0  0  0  0  0  0  0
   23.6150    7.0240   -5.5000 C   0  0  1  0  0  0  0  0  0  0  0  0
   29.3016    6.9383  -10.5637 H   0  0  0  0  0  0  0  0  0  0  0  0
   26.3246   10.7911  -11.1195 H   0  0  0  0  0  0  0  0  0  0  0  0
   31.7105    9.7857  -13.3678 H   0  0  0  0  0  0  0  0  0  0  0  0
   30.2863   11.8158  -13.6063 H   0  0  0  0  0  0  0  0  0  0  0  0
   24.5925    9.3315  -10.2572 H   0  0  0  0  0  0  0  0  0  0  0  0
   24.2196    7.3029   -8.1357 H   0  0  0  0  0  0  0  0  0  0  0  0
   24.5291    9.2989   -4.3251 H   0  0  0  0  0  0  0  0  0  0  0  0
   27.6863   14.1201  -12.4917 H   0  0  0  0  0  0  0  0  0  0  0  0
   28.6134   13.2654  -13.7711 H   0  0  0  0  0  0  0  0  0  0  0  0
   26.8181   13.2056  -13.7711 H   0  0  0  0  0  0  0  0  0  0  0  0
   25.6896   11.3027   -4.1334 H   0  0  0  0  0  0  0  0  0  0  0  0
   26.8242   11.7891   -5.4384 H   0  0  0  0  0  0  0  0  0  0  0  0
   25.1374   12.4067   -5.4384 H   0  0  0  0  0  0  0  0  0  0  0  0
   23.6806    7.1348   -4.4076 H   0  0  0  0  0  0  0  0  0  0  0  0
   22.5579    7.0017   -5.8035 H   0  0  0  0  0  0  0  0  0  0  0  0
   24.1035    6.0863   -5.8035 H   0  0  0  0  0  0  0  0  0  0  0  0
  1 11  1  0
  1  2  2  0
  1  6  1  0
  2  8  1  0
  2  3  1  0
  3  4  1  0
  4  5  1  0
  4  7  2  0
  5  6  2  0
  5 12  1  0
  8  9  2  0
  9 10  1  0
 10 11  2  0
 11 19  1  0
 12 13  1  0
 13 14  2  0
 13 18  1  0
 14 15  1  0
 15 22  1  0
 15 16  2  0
 16 17  1  0
 17 18  2  0
 17 21  1  0
 19 20  1  0
  3 23  1  0
  6 24  1  0
  9 25  1  0
 10 26  1  0
 12 27  1  0
 14 28  1  0
 16 29  1  0
 20 30  1  1
 20 31  1  0
 20 32  1  0
 21 33  1  1
 21 34  1  0
 21 35  1  0
 22 36  1  1
 22 37  1  0
 22 38  1  0
M  END
>  <Pose ID>  (118)
175

>  <Score>  (118)
-6.963355541229248

>  <smiles>  (118)
COc1ccnc2[nH]c(=O)c(Nc3cc(C)cc(C)n3)cc12

$$$$

     RDKit          3D

 31 34  0  0  0  0  0  0  0  0999 V2000
   27.9960    7.9020  -10.3410 C   0  0  0  0  0  0  0  0  0  0  0  0
   28.9450    7.1530  -11.0250 C   0  0  0  0  0  0  0  0  0  0  0  0
   29.8210    7.7750  -11.9050 N   0  0  0  0  0  0  0  0  0  0  0  0
   29.7500    9.1490  -12.1030 C   0  0  0  0  0  0  0  0  0  0  0  0
   27.1590    7.1030   -9.4490 O   0  0  0  0  0  0  0  0  0  0  0  0
   28.8000    9.9000  -11.4180 C   0  0  0  0  0  0  0  0  0  0  0  0
   27.9250    9.2760  -10.5360 C   0  0  0  0  0  0  0  0  0  0  0  0
   30.4750    9.9670  -12.8890 N   0  0  0  0  0  0  0  0  0  0  0  0
   30.0730   11.1440  -12.7640 C   0  0  0  0  0  0  0  0  0  0  0  0
   29.0360   11.1670  -11.8390 C   0  0  0  0  0  0  0  0  0  0  0  0
   26.3450    7.6380   -8.4470 C   0  0  0  0  0  0  0  0  0  0  0  0
   25.5650    8.7330   -8.7860 N   0  0  0  0  0  0  0  0  0  0  0  0
   24.8650    9.1220   -7.6580 N   0  0  0  0  0  0  0  0  0  0  0  0
   25.1850    8.2940   -6.6540 C   0  0  0  0  0  0  0  0  0  0  0  0
   26.0570    7.3910   -7.1160 C   0  0  0  0  0  0  0  0  0  0  0  0
   23.9640   10.2450   -7.6990 C   0  0  1  0  0  0  0  0  0  0  0  0
   30.4870   12.3230  -13.3740 C   0  0  0  0  0  0  0  0  0  0  0  0
   29.8630   13.5240  -13.0590 C   0  0  0  0  0  0  0  0  0  0  0  0
   28.8260   13.5470  -12.1330 N   0  0  0  0  0  0  0  0  0  0  0  0
   28.3810   12.3880  -11.5300 C   0  0  0  0  0  0  0  0  0  0  0  0
   29.0028    6.0656  -10.8694 H   0  0  0  0  0  0  0  0  0  0  0  0
   30.5239    7.2178  -12.4113 H   0  0  0  0  0  0  0  0  0  0  0  0
   27.1760    9.8703   -9.9922 H   0  0  0  0  0  0  0  0  0  0  0  0
   24.7970    8.3478   -5.6261 H   0  0  0  0  0  0  0  0  0  0  0  0
   26.4843    6.5692   -6.5226 H   0  0  0  0  0  0  0  0  0  0  0  0
   23.7162   10.5539   -6.6728 H   0  0  0  0  0  0  0  0  0  0  0  0
   24.4444   11.0814   -8.2278 H   0  0  0  0  0  0  0  0  0  0  0  0
   23.0433    9.9573   -8.2278 H   0  0  0  0  0  0  0  0  0  0  0  0
   31.3082   12.3050  -14.1057 H   0  0  0  0  0  0  0  0  0  0  0  0
   30.1895   14.4567  -13.5423 H   0  0  0  0  0  0  0  0  0  0  0  0
   27.5369   12.4099  -10.8251 H   0  0  0  0  0  0  0  0  0  0  0  0
  1  2  2  0
  1  7  1  0
  1  5  1  0
  2  3  1  0
  3  4  1  0
  4  8  2  0
  4  6  1  0
  6 10  1  0
  6  7  2  0
  8  9  1  0
  9 17  1  0
  9 10  2  0
 10 20  1  0
 17 18  2  0
 18 19  1  0
 19 20  2  0
  5 11  1  0
 11 12  2  0
 11 15  1  0
 12 13  1  0
 13 16  1  0
 13 14  1  0
 14 15  2  0
  2 21  1  0
  3 22  1  0
  7 23  1  0
 14 24  1  0
 15 25  1  0
 16 26  1  1
 16 27  1  0
 16 28  1  0
 17 29  1  0
 18 30  1  0
 20 31  1  0
M  END
>  <Pose ID>  (119)
519

>  <Score>  (119)
-6.953493595123291

>  <smiles>  (119)
Cn1ccc(Oc2c[nH]c3nc4ccncc4c-3c2)n1

$$$$

     RDKit          3D

 31 34  0  0  0  0  0  0  0  0999 V2000
   28.0030    7.9000  -10.3460 C   0  0  0  0  0  0  0  0  0  0  0  0
   28.9470    7.1520  -11.0370 C   0  0  0  0  0  0  0  0  0  0  0  0
   29.8220    7.7770  -11.9190 N   0  0  0  0  0  0  0  0  0  0  0  0
   29.7520    9.1520  -12.1090 C   0  0  0  0  0  0  0  0  0  0  0  0
   27.1680    7.0980   -9.4560 O   0  0  0  0  0  0  0  0  0  0  0  0
   28.8060    9.9010  -11.4170 C   0  0  0  0  0  0  0  0  0  0  0  0
   27.9330    9.2750  -10.5350 C   0  0  0  0  0  0  0  0  0  0  0  0
   30.4760    9.9720  -12.8940 N   0  0  0  0  0  0  0  0  0  0  0  0
   30.0700   11.1580  -12.7570 C   0  0  0  0  0  0  0  0  0  0  0  0
   29.0120   11.1670  -11.8570 C   0  0  0  0  0  0  0  0  0  0  0  0
   26.3580    7.6310   -8.4480 C   0  0  0  0  0  0  0  0  0  0  0  0
   25.5790    8.7280   -8.7790 N   0  0  0  0  0  0  0  0  0  0  0  0
   24.8830    9.1130   -7.6470 N   0  0  0  0  0  0  0  0  0  0  0  0
   25.2060    8.2800   -6.6470 C   0  0  0  0  0  0  0  0  0  0  0  0
   26.0750    7.3770   -7.1180 C   0  0  0  0  0  0  0  0  0  0  0  0
   23.9840   10.2380   -7.6800 C   0  0  1  0  0  0  0  0  0  0  0  0
   30.4910   12.3450  -13.3450 C   0  0  0  0  0  0  0  0  0  0  0  0
   29.8520   13.5390  -13.0350 C   0  0  0  0  0  0  0  0  0  0  0  0
   28.7940   13.5480  -12.1360 C   0  0  0  0  0  0  0  0  0  0  0  0
   28.3730   12.3610  -11.5460 N   0  0  0  0  0  0  0  0  0  0  0  0
   29.0028    6.0638  -10.8866 H   0  0  0  0  0  0  0  0  0  0  0  0
   30.5216    7.2211  -12.4312 H   0  0  0  0  0  0  0  0  0  0  0  0
   27.1865    9.8681   -9.9864 H   0  0  0  0  0  0  0  0  0  0  0  0
   24.8229    8.3300   -5.6171 H   0  0  0  0  0  0  0  0  0  0  0  0
   26.5029    6.5509   -6.5311 H   0  0  0  0  0  0  0  0  0  0  0  0
   23.7403   10.5429   -6.6516 H   0  0  0  0  0  0  0  0  0  0  0  0
   24.4642   11.0758   -8.2068 H   0  0  0  0  0  0  0  0  0  0  0  0
   23.0609    9.9544   -8.2068 H   0  0  0  0  0  0  0  0  0  0  0  0
   31.3303   12.3390  -14.0560 H   0  0  0  0  0  0  0  0  0  0  0  0
   30.1845   14.4778  -13.5021 H   0  0  0  0  0  0  0  0  0  0  0  0
   28.2888   14.4938  -11.8904 H   0  0  0  0  0  0  0  0  0  0  0  0
  1  2  2  0
  1  7  1  0
  1  5  1  0
  2  3  1  0
  3  4  1  0
  4  8  2  0
  4  6  1  0
  6 10  1  0
  6  7  2  0
  8  9  1  0
  9 17  1  0
  9 10  2  0
 10 20  1  0
 17 18  2  0
 18 19  1  0
 19 20  2  0
  5 11  1  0
 11 12  2  0
 11 15  1  0
 12 13  1  0
 13 16  1  0
 13 14  1  0
 14 15  2  0
  2 21  1  0
  3 22  1  0
  7 23  1  0
 14 24  1  0
 15 25  1  0
 16 26  1  1
 16 27  1  0
 16 28  1  0
 17 29  1  0
 18 30  1  0
 19 31  1  0
M  END
>  <Pose ID>  (120)
496

>  <Score>  (120)
-6.952106952667236

>  <smiles>  (120)
Cn1ccc(Oc2c[nH]c3nc4cccnc4c-3c2)n1

$$$$

     RDKit          3D

 36 39  0  0  0  0  0  0  0  0999 V2000
   27.3170    7.9290  -10.1930 C   0  0  0  0  0  0  0  0  0  0  0  0
   28.4060    7.1580  -10.5710 C   0  0  0  0  0  0  0  0  0  0  0  0
   29.4010    7.7080  -11.3700 N   0  0  0  0  0  0  0  0  0  0  0  0
   26.5000    7.1930   -9.4230 N   0  0  0  0  0  0  0  0  0  0  0  0
   29.3090    9.0300  -11.7870 C   0  0  0  0  0  0  0  0  0  0  0  0
   28.2180    9.8020  -11.4070 C   0  0  0  0  0  0  0  0  0  0  0  0
   27.2230    9.2550  -10.6110 C   0  0  0  0  0  0  0  0  0  0  0  0
   30.1320    9.7710  -12.5470 N   0  0  0  0  0  0  0  0  0  0  0  0
   29.6060   10.9950  -12.6660 C   0  0  0  0  0  0  0  0  0  0  0  0
   28.4030   11.0060  -11.9700 C   0  0  0  0  0  0  0  0  0  0  0  0
   25.9320    7.6740   -8.2050 C   0  0  0  0  0  0  0  0  0  0  0  0
   25.2710    6.7690   -7.3820 N   0  0  0  0  0  0  0  0  0  0  0  0
   24.6020    7.2170   -6.2500 C   0  0  0  0  0  0  0  0  0  0  0  0
   24.5950    8.5740   -5.9390 C   0  0  0  0  0  0  0  0  0  0  0  0
   25.2550    9.4800   -6.7630 C   0  0  0  0  0  0  0  0  0  0  0  0
   25.9480    9.0230   -7.8800 C   0  0  0  0  0  0  0  0  0  0  0  0
   24.0130    6.4060   -5.5140 O   0  0  0  0  0  0  0  0  0  0  0  0
   30.0330   12.1370  -13.3340 C   0  0  0  0  0  0  0  0  0  0  0  0
   29.2570   13.2900  -13.3060 N   0  0  0  0  0  0  0  0  0  0  0  0
   28.0550   13.3010  -12.6090 C   0  0  0  0  0  0  0  0  0  0  0  0
   27.6270   12.1600  -11.9410 C   0  0  0  0  0  0  0  0  0  0  0  0
   26.4940   11.9240  -11.1950 O   0  0  0  0  0  0  0  0  0  0  0  0
   26.7710   12.2230   -9.8310 C   0  0  1  0  0  0  0  0  0  0  0  0
   28.4821    6.1122  -10.2387 H   0  0  0  0  0  0  0  0  0  0  0  0
   30.2082    7.1345  -11.6536 H   0  0  0  0  0  0  0  0  0  0  0  0
   26.2721    6.2352   -9.7256 H   0  0  0  0  0  0  0  0  0  0  0  0
   26.3602    9.8673  -10.3098 H   0  0  0  0  0  0  0  0  0  0  0  0
   25.2774    5.7650   -7.6120 H   0  0  0  0  0  0  0  0  0  0  0  0
   24.0676    8.9299   -5.0417 H   0  0  0  0  0  0  0  0  0  0  0  0
   25.2292   10.5552   -6.5322 H   0  0  0  0  0  0  0  0  0  0  0  0
   26.5093    9.7321   -8.5062 H   0  0  0  0  0  0  0  0  0  0  0  0
   30.9851   12.1282  -13.8848 H   0  0  0  0  0  0  0  0  0  0  0  0
   27.4416   14.2138  -12.5859 H   0  0  0  0  0  0  0  0  0  0  0  0
   26.1670   11.5711   -9.1828 H   0  0  0  0  0  0  0  0  0  0  0  0
   27.8389   12.0541   -9.6281 H   0  0  0  0  0  0  0  0  0  0  0  0
   26.5211   13.2749   -9.6281 H   0  0  0  0  0  0  0  0  0  0  0  0
  1  7  1  0
  1  2  2  0
  1  4  1  0
  2  3  1  0
  3  5  1  0
  5  8  2  0
  5  6  1  0
  6 10  1  0
  6  7  2  0
  8  9  1  0
  9 18  1  0
  9 10  2  0
 10 21  1  0
 18 19  2  0
 19 20  1  0
 20 21  2  0
 21 22  1  0
  4 11  1  0
 11 16  2  0
 11 12  1  0
 12 13  1  0
 13 14  1  0
 13 17  2  0
 14 15  2  0
 15 16  1  0
 22 23  1  0
  2 24  1  0
  3 25  1  0
  4 26  1  0
  7 27  1  0
 12 28  1  0
 14 29  1  0
 15 30  1  0
 16 31  1  0
 18 32  1  0
 20 33  1  0
 23 34  1  1
 23 35  1  0
 23 36  1  0
M  END
>  <Pose ID>  (121)
122

>  <Score>  (121)
-6.944485187530518

>  <smiles>  (121)
COc1cncc2nc3[nH]cc(Nc4cccc(=O)[nH]4)cc-3c12

$$$$

     RDKit          3D

 34 37  0  0  0  0  0  0  0  0999 V2000
   27.1780    8.2450   -9.5090 C   0  0  0  0  0  0  0  0  0  0  0  0
   27.0650    7.0460   -8.8140 N   0  0  0  0  0  0  0  0  0  0  0  0
   26.1650    6.9370   -7.7600 C   0  0  0  0  0  0  0  0  0  0  0  0
   25.3780    8.0270   -7.4020 C   0  0  0  0  0  0  0  0  0  0  0  0
   25.4910    9.2250   -8.0980 N   0  0  0  0  0  0  0  0  0  0  0  0
   26.3930    9.3350   -9.1510 C   0  0  0  0  0  0  0  0  0  0  0  0
   24.4300    8.0970   -6.3870 C   0  0  0  0  0  0  0  0  0  0  0  0
   24.1230    6.9940   -5.5990 C   0  0  0  0  0  0  0  0  0  0  0  0
   23.7630    9.3000   -6.1890 C   0  0  0  0  0  0  0  0  0  0  0  0
   23.1490    7.0930   -4.6150 N   0  0  0  0  0  0  0  0  0  0  0  0
   22.4800    8.2960   -4.4180 C   0  0  0  0  0  0  0  0  0  0  0  0
   24.4120   10.1260   -7.3220 N   0  0  0  0  0  0  0  0  0  0  0  0
   22.7860    9.3990   -5.2050 C   0  0  0  0  0  0  0  0  0  0  0  0
   28.0900    8.3540  -10.5740 C   0  0  0  0  0  0  0  0  0  0  0  0
   29.1650    9.2360  -10.5570 O   0  0  0  0  0  0  0  0  0  0  0  0
   28.0760    7.6570  -11.7490 N   0  0  0  0  0  0  0  0  0  0  0  0
   29.7650    9.0210  -11.7750 C   0  0  0  0  0  0  0  0  0  0  0  0
   29.1060    8.0580  -12.5260 C   0  0  0  0  0  0  0  0  0  0  0  0
   22.0600   10.7050   -4.9920 C   0  0  1  0  0  0  0  0  0  0  0  0
   22.0090   11.1970   -3.5620 C   0  0  1  0  0  0  0  0  0  0  0  0
   21.3170   12.4660   -3.3500 C   0  0  1  0  0  0  0  0  0  0  0  0
   26.0751    5.9891   -7.2092 H   0  0  0  0  0  0  0  0  0  0  0  0
   26.4851   10.2837   -9.7001 H   0  0  0  0  0  0  0  0  0  0  0  0
   24.6521    6.0423   -5.7552 H   0  0  0  0  0  0  0  0  0  0  0  0
   21.7079    8.3743   -3.6384 H   0  0  0  0  0  0  0  0  0  0  0  0
   30.6658    9.5524  -12.1158 H   0  0  0  0  0  0  0  0  0  0  0  0
   29.3654    7.6997  -13.5331 H   0  0  0  0  0  0  0  0  0  0  0  0
   22.5620   11.4743   -5.5972 H   0  0  0  0  0  0  0  0  0  0  0  0
   21.0159   10.5211   -5.2852 H   0  0  0  0  0  0  0  0  0  0  0  0
   21.5000   10.4304   -2.9594 H   0  0  0  0  0  0  0  0  0  0  0  0
   23.0545   11.3747   -3.2700 H   0  0  0  0  0  0  0  0  0  0  0  0
   21.2154   12.6524   -2.2707 H   0  0  0  0  0  0  0  0  0  0  0  0
   21.8958   13.2806   -3.8098 H   0  0  0  0  0  0  0  0  0  0  0  0
   20.3188   12.4206   -3.8098 H   0  0  0  0  0  0  0  0  0  0  0  0
  1 14  1  0
  1  6  2  0
  1  2  1  0
  2  3  2  0
  3  4  1  0
  4  5  1  0
  4  7  2  0
  5  6  1  0
  5 12  1  0
  7  9  1  0
  7  8  1  0
  8 10  2  0
  9 12  2  0
  9 13  1  0
 10 11  1  0
 11 13  2  0
 13 19  1  0
 14 16  2  0
 14 15  1  0
 15 17  1  0
 16 18  1  0
 17 18  2  0
 19 20  1  0
 20 21  1  0
  3 22  1  0
  6 23  1  0
  8 24  1  0
 11 25  1  0
 17 26  1  0
 18 27  1  0
 19 28  1  6
 19 29  1  0
 20 30  1  1
 20 31  1  0
 21 32  1  1
 21 33  1  0
 21 34  1  0
M  END
>  <Pose ID>  (122)
64

>  <Score>  (122)
-6.9288763999938965

>  <smiles>  (122)
CCCc1cncc2c1nn1cc(-c3ncco3)ncc21

$$$$

     RDKit          3D

 36 39  0  0  0  0  0  0  0  0999 V2000
   26.1900    7.1200   -7.6560 C   0  0  0  0  0  0  0  0  0  0  0  0
   27.2600    7.5570   -8.4280 N   0  0  0  0  0  0  0  0  0  0  0  0
   25.1110    7.9640   -7.4220 N   0  0  0  0  0  0  0  0  0  0  0  0
   25.0960    9.1810   -7.9500 C   0  0  0  0  0  0  0  0  0  0  0  0
   26.0660    9.8300   -8.7040 C   0  0  0  0  0  0  0  0  0  0  0  0
   27.2490    8.8380   -8.9670 C   0  0  0  0  0  0  0  0  0  0  0  0
   23.9350    9.8530   -7.5850 N   0  0  0  0  0  0  0  0  0  0  0  0
   23.7450   11.1740   -7.9720 C   0  0  0  0  0  0  0  0  0  0  0  0
   24.7150   11.8230   -8.7270 N   0  0  0  0  0  0  0  0  0  0  0  0
   25.8770   11.1660   -9.0940 C   0  0  0  0  0  0  0  0  0  0  0  0
   26.8650   11.8150   -9.8930 C   0  0  0  0  0  0  0  0  0  0  0  0
   27.1500   11.1640  -11.0880 C   0  0  0  0  0  0  0  0  0  0  0  0
   27.6420   12.8960   -9.4910 C   0  0  0  0  0  0  0  0  0  0  0  0
   28.6550   13.2570  -10.2070 C   0  0  0  0  0  0  0  0  0  0  0  0
   29.0030   12.7220  -11.4410 C   0  0  0  0  0  0  0  0  0  0  0  0
   28.2120   11.5890  -11.8780 C   0  0  0  0  0  0  0  0  0  0  0  0
   30.0710   13.2520  -12.1530 C   0  0  0  0  0  0  0  0  0  0  0  0
   30.7920   14.3190  -11.6330 N   0  0  0  0  0  0  0  0  0  0  0  0
   30.4460   14.8550  -10.3980 C   0  0  0  0  0  0  0  0  0  0  0  0
   29.3770   14.3240   -9.6860 C   0  0  0  0  0  0  0  0  0  0  0  0
   27.1380   13.4070   -8.3150 O   0  0  0  0  0  0  0  0  0  0  0  0
   27.7320   12.7240   -7.2110 C   0  0  1  0  0  0  0  0  0  0  0  0
   28.5360   10.8810  -13.1700 C   0  0  1  0  0  0  0  0  0  0  0  0
   26.1972    6.1058   -7.2301 H   0  0  0  0  0  0  0  0  0  0  0  0
   28.0923    9.1632   -9.5940 H   0  0  0  0  0  0  0  0  0  0  0  0
   22.8272   11.7060   -7.6810 H   0  0  0  0  0  0  0  0  0  0  0  0
   26.5340   10.3110  -11.4090 H   0  0  0  0  0  0  0  0  0  0  0  0
   30.3460   12.8265  -13.1294 H   0  0  0  0  0  0  0  0  0  0  0  0
   31.0178   15.6988   -9.9845 H   0  0  0  0  0  0  0  0  0  0  0  0
   29.1022   14.7487   -8.7092 H   0  0  0  0  0  0  0  0  0  0  0  0
   27.3583   13.1537   -6.2699 H   0  0  0  0  0  0  0  0  0  0  0  0
   27.4700   11.6566   -7.2562 H   0  0  0  0  0  0  0  0  0  0  0  0
   28.8254   12.8354   -7.2562 H   0  0  0  0  0  0  0  0  0  0  0  0
   28.9844    9.9012  -12.9487 H   0  0  0  0  0  0  0  0  0  0  0  0
   27.6133   10.7390  -13.7517 H   0  0  0  0  0  0  0  0  0  0  0  0
   29.2466   11.4865  -13.7517 H   0  0  0  0  0  0  0  0  0  0  0  0
 11 12  2  0
 11 13  1  0
 11 10  1  0
 12 16  1  0
 13 14  2  0
 13 21  1  0
 14 15  1  0
 14 20  1  0
 15 17  1  0
 15 16  2  0
 16 23  1  0
 17 18  2  0
 18 19  1  0
 19 20  2  0
  1  2  2  0
  1  3  1  0
  2  6  1  0
  3  4  2  0
  4  5  1  0
  4  7  1  0
  5 10  1  0
  5  6  2  0
  7  8  2  0
  8  9  1  0
  9 10  2  0
 21 22  1  0
  1 24  1  0
  6 25  1  0
  8 26  1  0
 12 27  1  0
 17 28  1  0
 19 29  1  0
 20 30  1  0
 22 31  1  1
 22 32  1  0
 22 33  1  0
 23 34  1  1
 23 35  1  0
 23 36  1  0
M  END
>  <Pose ID>  (123)
24

>  <Score>  (123)
-6.917113780975342

>  <smiles>  (123)
COc1c(-c2ncnc3ncncc23)cc(C)c2cnccc12

$$$$

     RDKit          3D

 38 41  0  0  0  0  0  0  0  0999 V2000
   26.4490    6.6010   -8.5570 C   0  0  0  0  0  0  0  0  0  0  0  0
   27.4010    7.1610   -9.3990 N   0  0  0  0  0  0  0  0  0  0  0  0
   25.4830    7.4100   -7.9680 N   0  0  0  0  0  0  0  0  0  0  0  0
   25.4580    8.7120   -8.2280 C   0  0  0  0  0  0  0  0  0  0  0  0
   26.3310    9.4770   -8.9950 C   0  0  0  0  0  0  0  0  0  0  0  0
   27.3840    8.5260   -9.6580 C   0  0  0  0  0  0  0  0  0  0  0  0
   24.4230    9.3250   -7.5340 N   0  0  0  0  0  0  0  0  0  0  0  0
   24.2580   10.7020   -7.6050 C   0  0  0  0  0  0  0  0  0  0  0  0
   25.1270   11.4680   -8.3730 N   0  0  0  0  0  0  0  0  0  0  0  0
   26.1660   10.8680   -9.0660 C   0  0  0  0  0  0  0  0  0  0  0  0
   27.0500   11.6420   -9.8810 C   0  0  0  0  0  0  0  0  0  0  0  0
   27.0860   11.2460  -11.2140 C   0  0  0  0  0  0  0  0  0  0  0  0
   27.9500   12.5900   -9.4120 C   0  0  0  0  0  0  0  0  0  0  0  0
   28.8150   13.0970  -10.2560 C   0  0  0  0  0  0  0  0  0  0  0  0
   28.9100   12.7420  -11.5950 C   0  0  0  0  0  0  0  0  0  0  0  0
   28.0270   11.8010  -12.0750 C   0  0  0  0  0  0  0  0  0  0  0  0
   29.8950   13.3090  -12.3960 C   0  0  0  0  0  0  0  0  0  0  0  0
   29.7030   14.0200   -9.7150 C   0  0  0  0  0  0  0  0  0  0  0  0
   30.6870   14.5870  -10.5150 C   0  0  0  0  0  0  0  0  0  0  0  0
   30.7820   14.2330  -11.8560 N   0  0  0  0  0  0  0  0  0  0  0  0
   30.3140   13.2670  -13.6150 C   0  0  1  0  0  0  0  0  0  0  0  0
   23.1350   11.3660   -6.8490 C   0  0  1  0  0  0  0  0  0  0  0  0
   23.5010   11.5530   -5.3780 C   0  0  1  0  0  0  0  0  0  0  0  0
   26.4589    5.5195   -8.3563 H   0  0  0  0  0  0  0  0  0  0  0  0
   28.1297    8.9498  -10.3468 H   0  0  0  0  0  0  0  0  0  0  0  0
   26.3724   10.4961  -11.5861 H   0  0  0  0  0  0  0  0  0  0  0  0
   27.9372   12.9073   -8.3588 H   0  0  0  0  0  0  0  0  0  0  0  0
   28.0653   11.4909  -13.1297 H   0  0  0  0  0  0  0  0  0  0  0  0
   29.6264   14.3011   -8.6543 H   0  0  0  0  0  0  0  0  0  0  0  0
   31.3910   15.3161  -10.0874 H   0  0  0  0  0  0  0  0  0  0  0  0
   31.4085   13.1573  -13.6229 H   0  0  0  0  0  0  0  0  0  0  0  0
   29.8559   12.4103  -14.1309 H   0  0  0  0  0  0  0  0  0  0  0  0
   30.0350   14.1976  -14.1309 H   0  0  0  0  0  0  0  0  0  0  0  0
   22.9321   12.3499   -7.2971 H   0  0  0  0  0  0  0  0  0  0  0  0
   22.2440   10.7238   -6.9096 H   0  0  0  0  0  0  0  0  0  0  0  0
   22.6994   11.1434   -4.7458 H   0  0  0  0  0  0  0  0  0  0  0  0
   24.4422   11.0253   -5.1644 H   0  0  0  0  0  0  0  0  0  0  0  0
   23.6250   12.6249   -5.1644 H   0  0  0  0  0  0  0  0  0  0  0  0
  1  2  2  0
  1  3  1  0
  2  6  1  0
  3  4  2  0
  4  5  1  0
  4  7  1  0
  5  6  2  0
  5 10  1  0
  7  8  2  0
  8  9  1  0
  8 22  1  0
  9 10  2  0
 10 11  1  0
 11 12  2  0
 11 13  1  0
 12 16  1  0
 13 14  2  0
 14 15  1  0
 14 18  1  0
 15 17  1  0
 15 16  2  0
 17 21  1  0
 17 20  2  0
 18 19  2  0
 19 20  1  0
 22 23  1  0
  1 24  1  0
  6 25  1  0
 12 26  1  0
 13 27  1  0
 16 28  1  0
 18 29  1  0
 19 30  1  0
 21 31  1  1
 21 32  1  0
 21 33  1  0
 22 34  1  6
 22 35  1  0
 23 36  1  1
 23 37  1  0
 23 38  1  0
M  END
>  <Pose ID>  (124)
40

>  <Score>  (124)
-6.913939952850342

>  <smiles>  (124)
CCc1nc(-c2ccc3c(C)nccc3c2)c2cncnc2n1

$$$$

     RDKit          3D

 34 37  0  0  0  0  0  0  0  0999 V2000
   27.9870    7.8840  -10.3580 C   0  0  0  0  0  0  0  0  0  0  0  0
   28.9560    7.1440  -11.0220 C   0  0  0  0  0  0  0  0  0  0  0  0
   29.8400    7.7740  -11.8910 N   0  0  0  0  0  0  0  0  0  0  0  0
   29.7540    9.1460  -12.0960 C   0  0  0  0  0  0  0  0  0  0  0  0
   27.1450    7.0780   -9.4780 O   0  0  0  0  0  0  0  0  0  0  0  0
   28.7820    9.8870  -11.4310 C   0  0  0  0  0  0  0  0  0  0  0  0
   27.9000    9.2560  -10.5620 C   0  0  0  0  0  0  0  0  0  0  0  0
   30.4820    9.9690  -12.8740 N   0  0  0  0  0  0  0  0  0  0  0  0
   30.0560   11.1500  -12.7570 C   0  0  0  0  0  0  0  0  0  0  0  0
   28.9790   11.1520  -11.8790 C   0  0  0  0  0  0  0  0  0  0  0  0
   26.3060    7.6080   -8.4920 C   0  0  0  0  0  0  0  0  0  0  0  0
   25.5180    8.6910   -8.8500 N   0  0  0  0  0  0  0  0  0  0  0  0
   24.7930    9.0760   -7.7360 N   0  0  0  0  0  0  0  0  0  0  0  0
   25.1070    8.2570   -6.7220 C   0  0  0  0  0  0  0  0  0  0  0  0
   25.9990    7.3630   -7.1660 C   0  0  0  0  0  0  0  0  0  0  0  0
   23.8790   10.1870   -7.7990 C   0  0  1  0  0  0  0  0  0  0  0  0
   30.4710   12.3380  -13.3470 C   0  0  0  0  0  0  0  0  0  0  0  0
   29.8080   13.5250  -13.0620 C   0  0  0  0  0  0  0  0  0  0  0  0
   28.7320   13.5270  -12.1850 C   0  0  0  0  0  0  0  0  0  0  0  0
   28.3160   12.3390  -11.5930 N   0  0  0  0  0  0  0  0  0  0  0  0
   24.5520    8.3310   -5.3210 C   0  0  1  0  0  0  0  0  0  0  0  0
   29.0245    6.0581  -10.8605 H   0  0  0  0  0  0  0  0  0  0  0  0
   30.5586    7.2239  -12.3828 H   0  0  0  0  0  0  0  0  0  0  0  0
   27.1328    9.8426  -10.0355 H   0  0  0  0  0  0  0  0  0  0  0  0
   26.4269    6.5493   -6.5621 H   0  0  0  0  0  0  0  0  0  0  0  0
   23.6175   10.5049   -6.7789 H   0  0  0  0  0  0  0  0  0  0  0  0
   24.3543   11.0230   -8.3331 H   0  0  0  0  0  0  0  0  0  0  0  0
   22.9671    9.8818   -8.3331 H   0  0  0  0  0  0  0  0  0  0  0  0
   31.3251   12.3383  -14.0402 H   0  0  0  0  0  0  0  0  0  0  0  0
   30.1359   14.4641  -13.5317 H   0  0  0  0  0  0  0  0  0  0  0  0
   28.2086   14.4676  -11.9583 H   0  0  0  0  0  0  0  0  0  0  0  0
   25.3717    8.2217   -4.5956 H   0  0  0  0  0  0  0  0  0  0  0  0
   24.0585    9.3029   -5.1730 H   0  0  0  0  0  0  0  0  0  0  0  0
   23.8211    7.5224   -5.1730 H   0  0  0  0  0  0  0  0  0  0  0  0
  1  2  2  0
  1  7  1  0
  1  5  1  0
  2  3  1  0
  3  4  1  0
  4  8  2  0
  4  6  1  0
  6 10  1  0
  6  7  2  0
  8  9  1  0
  9 17  1  0
  9 10  2  0
 10 20  1  0
 17 18  2  0
 18 19  1  0
 19 20  2  0
  5 11  1  0
 11 12  2  0
 11 15  1  0
 12 13  1  0
 13 16  1  0
 13 14  1  0
 14 15  2  0
 14 21  1  0
  2 22  1  0
  3 23  1  0
  7 24  1  0
 15 25  1  0
 16 26  1  1
 16 27  1  0
 16 28  1  0
 17 29  1  0
 18 30  1  0
 19 31  1  0
 21 32  1  1
 21 33  1  0
 21 34  1  0
M  END
>  <Pose ID>  (125)
510

>  <Score>  (125)
-6.912912845611572

>  <smiles>  (125)
Cc1cc(Oc2c[nH]c3nc4cccnc4c-3c2)nn1C

$$$$

     RDKit          3D

 37 40  0  0  0  0  0  0  0  0999 V2000
   28.0250    7.8750  -10.3720 C   0  0  0  0  0  0  0  0  0  0  0  0
   28.9870    7.1380  -11.0520 C   0  0  0  0  0  0  0  0  0  0  0  0
   29.8610    7.7730  -11.9250 N   0  0  0  0  0  0  0  0  0  0  0  0
   29.7740    9.1470  -12.1200 C   0  0  0  0  0  0  0  0  0  0  0  0
   27.1910    7.0630   -9.4870 O   0  0  0  0  0  0  0  0  0  0  0  0
   28.8110    9.8850  -11.4390 C   0  0  0  0  0  0  0  0  0  0  0  0
   27.9380    9.2470  -10.5650 C   0  0  0  0  0  0  0  0  0  0  0  0
   30.4940    9.9760  -12.8990 N   0  0  0  0  0  0  0  0  0  0  0  0
   30.0780   11.1470  -12.7730 C   0  0  0  0  0  0  0  0  0  0  0  0
   29.0350   11.1560  -11.8550 C   0  0  0  0  0  0  0  0  0  0  0  0
   26.3640    7.5860   -8.4900 C   0  0  0  0  0  0  0  0  0  0  0  0
   25.5730    8.6720   -8.8310 N   0  0  0  0  0  0  0  0  0  0  0  0
   24.8620    9.0490   -7.7070 N   0  0  0  0  0  0  0  0  0  0  0  0
   25.1850    8.2220   -6.7020 C   0  0  0  0  0  0  0  0  0  0  0  0
   26.0710    7.3320   -7.1620 C   0  0  0  0  0  0  0  0  0  0  0  0
   23.9470   10.1620   -7.7510 C   0  0  2  0  0  0  0  0  0  0  0  0
   30.4820   12.3330  -13.3780 C   0  0  0  0  0  0  0  0  0  0  0  0
   29.8410   13.5250  -13.0640 C   0  0  0  0  0  0  0  0  0  0  0  0
   28.7980   13.5330  -12.1450 N   0  0  0  0  0  0  0  0  0  0  0  0
   28.3630   12.3680  -11.5470 C   0  0  0  0  0  0  0  0  0  0  0  0
   24.5380   11.6290   -8.1260 C   0  0  1  0  0  0  0  0  0  0  0  0
   23.2100   10.4550   -6.4610 C   0  0  1  0  0  0  0  0  0  0  0  0
   29.0564    6.0509  -10.8988 H   0  0  0  0  0  0  0  0  0  0  0  0
   30.5739    7.2258  -12.4282 H   0  0  0  0  0  0  0  0  0  0  0  0
   27.1772    9.8303  -10.0256 H   0  0  0  0  0  0  0  0  0  0  0  0
   24.7896    8.2677   -5.6765 H   0  0  0  0  0  0  0  0  0  0  0  0
   26.5052    6.5139   -6.5685 H   0  0  0  0  0  0  0  0  0  0  0  0
   23.3143    9.7615   -8.5568 H   0  0  0  0  0  0  0  0  0  0  0  0
   31.3081   12.3269  -14.1043 H   0  0  0  0  0  0  0  0  0  0  0  0
   30.1590   14.4629  -13.5428 H   0  0  0  0  0  0  0  0  0  0  0  0
   27.5144   12.3782  -10.8472 H   0  0  0  0  0  0  0  0  0  0  0  0
   24.7607   12.1819   -7.2015 H   0  0  0  0  0  0  0  0  0  0  0  0
   25.4597   11.5133   -8.7152 H   0  0  0  0  0  0  0  0  0  0  0  0
   23.7935   12.1846   -8.7152 H   0  0  0  0  0  0  0  0  0  0  0  0
   23.8525   10.1996   -5.6055 H   0  0  0  0  0  0  0  0  0  0  0  0
   22.9529   11.5237   -6.4202 H   0  0  0  0  0  0  0  0  0  0  0  0
   22.2893    9.8545   -6.4202 H   0  0  0  0  0  0  0  0  0  0  0  0
  1  2  2  0
  1  7  1  0
  1  5  1  0
  2  3  1  0
  3  4  1  0
  4  8  2  0
  4  6  1  0
  6 10  1  0
  6  7  2  0
  8  9  1  0
  9 17  1  0
  9 10  2  0
 10 20  1  0
 17 18  2  0
 18 19  1  0
 19 20  2  0
  5 11  1  0
 11 12  2  0
 11 15  1  0
 12 13  1  0
 13 16  1  0
 13 14  1  0
 14 15  2  0
 16 21  1  0
 16 22  1  0
  2 23  1  0
  3 24  1  0
  7 25  1  0
 14 26  1  0
 15 27  1  0
 16 28  1  6
 17 29  1  0
 18 30  1  0
 20 31  1  0
 21 32  1  1
 21 33  1  0
 21 34  1  0
 22 35  1  1
 22 36  1  0
 22 37  1  0
M  END
>  <Pose ID>  (126)
526

>  <Score>  (126)
-6.910213947296143

>  <smiles>  (126)
CC(C)n1ccc(Oc2c[nH]c3nc4ccncc4c-3c2)n1

$$$$

     RDKit          3D

 36 38  0  0  0  0  0  0  0  0999 V2000
   26.7510    8.9230  -10.3580 C   0  0  0  0  0  0  0  0  0  0  0  0
   27.4000    7.7060  -10.1680 C   0  0  0  0  0  0  0  0  0  0  0  0
   28.6450    7.4840  -10.7460 N   0  0  0  0  0  0  0  0  0  0  0  0
   25.5430    9.4590   -9.9320 N   0  0  0  0  0  0  0  0  0  0  0  0
   29.2400    8.4760  -11.5200 C   0  0  0  0  0  0  0  0  0  0  0  0
   28.5910    9.6900  -11.7120 C   0  0  0  0  0  0  0  0  0  0  0  0
   27.3470    9.9130  -11.1320 C   0  0  0  0  0  0  0  0  0  0  0  0
   30.4150    8.4960  -12.1720 N   0  0  0  0  0  0  0  0  0  0  0  0
   30.5530    9.7130  -12.7990 C   0  0  0  0  0  0  0  0  0  0  0  0
   29.3410   10.3310  -12.4250 C   0  0  0  0  0  0  0  0  0  0  0  0
   25.2110    9.8110   -8.5310 C   0  0  0  0  0  0  0  0  0  0  0  0
   24.0230   10.3330   -8.0490 N   0  0  0  0  0  0  0  0  0  0  0  0
   23.8900   10.6530   -6.7040 C   0  0  0  0  0  0  0  0  0  0  0  0
   24.9470   10.4120   -5.8320 C   0  0  0  0  0  0  0  0  0  0  0  0
   26.1360    9.8740   -6.3090 C   0  0  0  0  0  0  0  0  0  0  0  0
   26.2660    9.5720   -7.6590 N   0  0  0  0  0  0  0  0  0  0  0  0
   27.0800    9.6630   -5.5290 O   0  0  0  0  0  0  0  0  0  0  0  0
   26.7040   11.1160  -11.3250 O   0  0  0  0  0  0  0  0  0  0  0  0
   27.3610   12.1340  -10.5820 C   0  0  2  0  0  0  0  0  0  0  0  0
   26.7780   12.3900   -9.1850 C   0  0  1  0  0  0  0  0  0  0  0  0
   27.2980   13.4800  -11.4390 C   0  0  1  0  0  0  0  0  0  0  0  0
   26.9277    6.9199   -9.5605 H   0  0  0  0  0  0  0  0  0  0  0  0
   29.1270    6.5853  -10.6013 H   0  0  0  0  0  0  0  0  0  0  0  0
   24.8200    9.6252  -10.6465 H   0  0  0  0  0  0  0  0  0  0  0  0
   31.3772   10.0966  -13.4183 H   0  0  0  0  0  0  0  0  0  0  0  0
   29.0854   11.3463  -12.7625 H   0  0  0  0  0  0  0  0  0  0  0  0
   22.9543   11.0945   -6.3303 H   0  0  0  0  0  0  0  0  0  0  0  0
   24.8412   10.6478   -4.7628 H   0  0  0  0  0  0  0  0  0  0  0  0
   27.1456    9.1704   -8.0138 H   0  0  0  0  0  0  0  0  0  0  0  0
   28.3915   11.7910  -10.4072 H   0  0  0  0  0  0  0  0  0  0  0  0
   27.5028   12.0717   -8.4212 H   0  0  0  0  0  0  0  0  0  0  0  0
   26.5678   13.4632   -9.0664 H   0  0  0  0  0  0  0  0  0  0  0  0
   25.8456   11.8185   -9.0664 H   0  0  0  0  0  0  0  0  0  0  0  0
   27.2575   14.3450  -10.7607 H   0  0  0  0  0  0  0  0  0  0  0  0
   28.1937   13.5531  -12.0733 H   0  0  0  0  0  0  0  0  0  0  0  0
   26.3994   13.4691  -12.0733 H   0  0  0  0  0  0  0  0  0  0  0  0
  1  7  1  0
  1  2  2  0
  1  4  1  0
  2  3  1  0
  3  5  1  0
  5  8  2  0
  5  6  1  0
  6 10  1  0
  6  7  2  0
  7 18  1  0
  8  9  1  0
  9 10  2  0
  4 11  1  0
 11 12  2  0
 11 16  1  0
 12 13  1  0
 13 14  2  0
 14 15  1  0
 15 16  1  0
 15 17  2  0
 18 19  1  0
 19 21  1  0
 19 20  1  0
  2 22  1  0
  3 23  1  0
  4 24  1  0
  9 25  1  0
 10 26  1  0
 13 27  1  0
 14 28  1  0
 16 29  1  0
 19 30  1  1
 20 31  1  1
 20 32  1  0
 20 33  1  0
 21 34  1  1
 21 35  1  0
 21 36  1  0
M  END
>  <Pose ID>  (127)
31

>  <Score>  (127)
-6.903901100158691

>  <smiles>  (127)
CC(C)Oc1c(Nc2nccc(=O)[nH]2)c[nH]c2nccc1-2

$$$$

     RDKit          3D

 31 34  0  0  0  0  0  0  0  0999 V2000
   27.1710    8.2550   -9.5610 C   0  0  0  0  0  0  0  0  0  0  0  0
   27.1280    7.0790   -8.8190 N   0  0  0  0  0  0  0  0  0  0  0  0
   26.2410    6.9610   -7.7570 C   0  0  0  0  0  0  0  0  0  0  0  0
   25.3970    8.0180   -7.4350 C   0  0  0  0  0  0  0  0  0  0  0  0
   25.4380    9.1920   -8.1770 N   0  0  0  0  0  0  0  0  0  0  0  0
   26.3260    9.3110   -9.2390 C   0  0  0  0  0  0  0  0  0  0  0  0
   24.4510    8.0730   -6.4170 C   0  0  0  0  0  0  0  0  0  0  0  0
   24.2100    6.9860   -5.5840 C   0  0  0  0  0  0  0  0  0  0  0  0
   23.7170    9.2420   -6.2600 C   0  0  0  0  0  0  0  0  0  0  0  0
   23.2350    7.0670   -4.5980 N   0  0  0  0  0  0  0  0  0  0  0  0
   22.5000    8.2380   -4.4420 C   0  0  0  0  0  0  0  0  0  0  0  0
   24.3140   10.0600   -7.4280 N   0  0  0  0  0  0  0  0  0  0  0  0
   22.7410    9.3240   -5.2730 C   0  0  0  0  0  0  0  0  0  0  0  0
   28.0680    8.3750  -10.6380 C   0  0  0  0  0  0  0  0  0  0  0  0
   29.0920    9.3150  -10.6600 O   0  0  0  0  0  0  0  0  0  0  0  0
   29.6730    9.0940  -11.8610 C   0  0  0  0  0  0  0  0  0  0  0  0
   29.0660    8.0850  -12.5490 N   0  0  0  0  0  0  0  0  0  0  0  0
   28.0450    7.6070  -11.7850 C   0  0  0  0  0  0  0  0  0  0  0  0
   21.9440   10.5950   -5.1040 C   0  0  1  0  0  0  0  0  0  0  0  0
   21.4420    8.3280   -3.3710 C   0  0  1  0  0  0  0  0  0  0  0  0
   26.2061    6.0311   -7.1704 H   0  0  0  0  0  0  0  0  0  0  0  0
   26.3605   10.2411   -9.8252 H   0  0  0  0  0  0  0  0  0  0  0  0
   24.7922    6.0607   -5.7060 H   0  0  0  0  0  0  0  0  0  0  0  0
   30.5355    9.6624  -12.2392 H   0  0  0  0  0  0  0  0  0  0  0  0
   27.3528    6.7876  -12.0287 H   0  0  0  0  0  0  0  0  0  0  0  0
   21.8121   10.8053   -4.0324 H   0  0  0  0  0  0  0  0  0  0  0  0
   22.4805   11.4300   -5.5782 H   0  0  0  0  0  0  0  0  0  0  0  0
   20.9587   10.4757   -5.5782 H   0  0  0  0  0  0  0  0  0  0  0  0
   21.9186    8.2875   -2.3804 H   0  0  0  0  0  0  0  0  0  0  0  0
   20.8940    9.2760   -3.4757 H   0  0  0  0  0  0  0  0  0  0  0  0
   20.7417    7.4862   -3.4757 H   0  0  0  0  0  0  0  0  0  0  0  0
  1 14  1  0
  1  6  2  0
  1  2  1  0
  2  3  2  0
  3  4  1  0
  4  5  1  0
  4  7  2  0
  5  6  1  0
  5 12  1  0
  7  9  1  0
  7  8  1  0
  8 10  2  0
  9 12  2  0
  9 13  1  0
 10 11  1  0
 11 13  2  0
 11 20  1  0
 13 19  1  0
 14 18  2  0
 14 15  1  0
 15 16  1  0
 16 17  2  0
 17 18  1  0
  3 21  1  0
  6 22  1  0
  8 23  1  0
 16 24  1  0
 18 25  1  0
 19 26  1  1
 19 27  1  0
 19 28  1  0
 20 29  1  1
 20 30  1  0
 20 31  1  0
M  END
>  <Pose ID>  (128)
81

>  <Score>  (128)
-6.87540864944458

>  <smiles>  (128)
Cc1ncc2c(nn3cc(-c4cnco4)ncc23)c1C

$$$$

     RDKit          3D

 35 37  0  0  0  0  0  0  0  0999 V2000
   28.2630    9.9600  -11.5840 C   0  0  0  0  0  0  0  0  0  0  0  0
   29.0590    8.8270  -11.4530 C   0  0  0  0  0  0  0  0  0  0  0  0
   28.6830    7.7490  -10.6640 N   0  0  0  0  0  0  0  0  0  0  0  0
   27.4530    7.7780  -10.0170 C   0  0  0  0  0  0  0  0  0  0  0  0
   26.6180    8.8810  -10.1630 C   0  0  0  0  0  0  0  0  0  0  0  0
   27.0070    9.9360  -10.9630 C   0  0  0  0  0  0  0  0  0  0  0  0
   27.0990    6.8200   -9.3140 O   0  0  0  0  0  0  0  0  0  0  0  0
   30.2950    8.7700  -12.0880 N   0  0  0  0  0  0  0  0  0  0  0  0
   30.7300    9.8400  -12.8570 C   0  0  0  0  0  0  0  0  0  0  0  0
   29.9330   10.9710  -12.9890 C   0  0  0  0  0  0  0  0  0  0  0  0
   28.6950   11.0290  -12.3400 C   0  0  0  0  0  0  0  0  0  0  0  0
   25.3860    9.1520   -9.6240 N   0  0  0  0  0  0  0  0  0  0  0  0
   25.1670    9.2230   -8.1490 C   0  0  0  0  0  0  0  0  0  0  0  0
   24.5370    8.1480   -7.5360 C   0  0  0  0  0  0  0  0  0  0  0  0
   24.3040    8.1670   -6.1650 C   0  0  0  0  0  0  0  0  0  0  0  0
   24.7040    9.2630   -5.4090 C   0  0  0  0  0  0  0  0  0  0  0  0
   25.3320   10.3390   -6.0220 C   0  0  0  0  0  0  0  0  0  0  0  0
   25.5650   10.3190   -7.3910 N   0  0  0  0  0  0  0  0  0  0  0  0
   27.7420   12.0220  -12.3030 O   0  0  0  0  0  0  0  0  0  0  0  0
   27.6970   13.2210  -13.1330 C   0  0  1  0  0  0  0  0  0  0  0  0
   25.7620   11.5290   -5.2010 C   0  0  1  0  0  0  0  0  0  0  0  0
   29.3080    6.9370  -10.5591 H   0  0  0  0  0  0  0  0  0  0  0  0
   26.3153   10.7774  -11.1168 H   0  0  0  0  0  0  0  0  0  0  0  0
   31.7059    9.7931  -13.3623 H   0  0  0  0  0  0  0  0  0  0  0  0
   30.2747   11.8181  -13.6020 H   0  0  0  0  0  0  0  0  0  0  0  0
   24.5883    9.3112  -10.2558 H   0  0  0  0  0  0  0  0  0  0  0  0
   24.2220    7.2809   -8.1351 H   0  0  0  0  0  0  0  0  0  0  0  0
   23.8039    7.3160   -5.6795 H   0  0  0  0  0  0  0  0  0  0  0  0
   24.5228    9.2778   -4.3241 H   0  0  0  0  0  0  0  0  0  0  0  0
   27.6636   14.1119  -12.4887 H   0  0  0  0  0  0  0  0  0  0  0  0
   28.5943   13.2612  -13.7681 H   0  0  0  0  0  0  0  0  0  0  0  0
   26.7992   13.1939  -13.7681 H   0  0  0  0  0  0  0  0  0  0  0  0
   25.6747   11.2874   -4.1314 H   0  0  0  0  0  0  0  0  0  0  0  0
   26.8071   11.7785   -5.4364 H   0  0  0  0  0  0  0  0  0  0  0  0
   25.1178   12.3890   -5.4364 H   0  0  0  0  0  0  0  0  0  0  0  0
  1 11  1  0
  1  2  2  0
  1  6  1  0
  2  8  1  0
  2  3  1  0
  3  4  1  0
  4  5  1  0
  4  7  2  0
  5  6  2  0
  5 12  1  0
  8  9  2  0
  9 10  1  0
 10 11  2  0
 11 19  1  0
 12 13  1  0
 13 14  2  0
 13 18  1  0
 14 15  1  0
 15 16  2  0
 16 17  1  0
 17 18  2  0
 17 21  1  0
 19 20  1  0
  3 22  1  0
  6 23  1  0
  9 24  1  0
 10 25  1  0
 12 26  1  0
 14 27  1  0
 15 28  1  0
 16 29  1  0
 20 30  1  1
 20 31  1  0
 20 32  1  0
 21 33  1  1
 21 34  1  0
 21 35  1  0
M  END
>  <Pose ID>  (129)
171

>  <Score>  (129)
-6.874661445617676

>  <smiles>  (129)
COc1ccnc2[nH]c(=O)c(Nc3cccc(C)n3)cc12

$$$$

     RDKit          3D

 38 41  0  0  0  0  0  0  0  0999 V2000
   27.3740    8.0340  -10.2560 C   0  0  0  0  0  0  0  0  0  0  0  0
   28.3810    7.2110  -10.7370 C   0  0  0  0  0  0  0  0  0  0  0  0
   29.3810    7.7400  -11.5430 N   0  0  0  0  0  0  0  0  0  0  0  0
   26.5340    7.3100   -9.5000 N   0  0  0  0  0  0  0  0  0  0  0  0
   29.3780    9.0920  -11.8650 C   0  0  0  0  0  0  0  0  0  0  0  0
   28.3680    9.9140  -11.3820 C   0  0  0  0  0  0  0  0  0  0  0  0
   27.3670    9.3910  -10.5760 C   0  0  0  0  0  0  0  0  0  0  0  0
   30.2230    9.8220  -12.6110 N   0  0  0  0  0  0  0  0  0  0  0  0
   29.8280   11.0150  -12.6260 C   0  0  0  0  0  0  0  0  0  0  0  0
   28.6740   11.1000  -11.8570 C   0  0  0  0  0  0  0  0  0  0  0  0
   26.0580    7.7450   -8.2250 C   0  0  0  0  0  0  0  0  0  0  0  0
   25.3630    6.8360   -7.4350 N   0  0  0  0  0  0  0  0  0  0  0  0
   24.7810    7.2520   -6.2440 C   0  0  0  0  0  0  0  0  0  0  0  0
   24.8940    8.5790   -5.8430 C   0  0  0  0  0  0  0  0  0  0  0  0
   25.5870    9.4880   -6.6340 C   0  0  0  0  0  0  0  0  0  0  0  0
   26.1940    9.0610   -7.8120 C   0  0  0  0  0  0  0  0  0  0  0  0
   24.1610    6.4380   -5.5370 O   0  0  0  0  0  0  0  0  0  0  0  0
   30.3270   12.1470  -13.2590 C   0  0  0  0  0  0  0  0  0  0  0  0
   29.6730   13.3640  -13.1210 C   0  0  0  0  0  0  0  0  0  0  0  0
   28.5190   13.4510  -12.3520 N   0  0  0  0  0  0  0  0  0  0  0  0
   27.9900   12.3370  -11.7300 C   0  0  0  0  0  0  0  0  0  0  0  0
   25.6810   10.9360   -6.2170 C   0  0  1  0  0  0  0  0  0  0  0  0
   26.7130   12.4320  -10.9330 C   0  0  1  0  0  0  0  0  0  0  0  0
   28.3879    6.1413  -10.4808 H   0  0  0  0  0  0  0  0  0  0  0  0
   30.1272    7.1282  -11.9032 H   0  0  0  0  0  0  0  0  0  0  0  0
   26.2173    6.3969   -9.8561 H   0  0  0  0  0  0  0  0  0  0  0  0
   26.5706   10.0448  -10.1908 H   0  0  0  0  0  0  0  0  0  0  0  0
   25.2796    5.8536   -7.7330 H   0  0  0  0  0  0  0  0  0  0  0  0
   24.4348    8.9093   -4.8996 H   0  0  0  0  0  0  0  0  0  0  0  0
   26.7818    9.7685   -8.4152 H   0  0  0  0  0  0  0  0  0  0  0  0
   31.2397   12.0789  -13.8691 H   0  0  0  0  0  0  0  0  0  0  0  0
   30.0689   14.2603  -13.6210 H   0  0  0  0  0  0  0  0  0  0  0  0
   25.6853   11.0018   -5.1190 H   0  0  0  0  0  0  0  0  0  0  0  0
   26.6094   11.3724   -6.6141 H   0  0  0  0  0  0  0  0  0  0  0  0
   24.8168   11.4888   -6.6141 H   0  0  0  0  0  0  0  0  0  0  0  0
   26.9491   12.4144   -9.8588 H   0  0  0  0  0  0  0  0  0  0  0  0
   26.1959   13.3711  -11.1795 H   0  0  0  0  0  0  0  0  0  0  0  0
   26.0627   11.5798  -11.1795 H   0  0  0  0  0  0  0  0  0  0  0  0
  1  2  2  0
  1  7  1  0
  1  4  1  0
  2  3  1  0
  3  5  1  0
  5  8  2  0
  5  6  1  0
  6 10  1  0
  6  7  2  0
  8  9  1  0
  9 18  1  0
  9 10  2  0
 10 21  1  0
 18 19  2  0
 19 20  1  0
 20 21  2  0
 21 23  1  0
  4 11  1  0
 11 16  2  0
 11 12  1  0
 12 13  1  0
 13 14  1  0
 13 17  2  0
 14 15  2  0
 15 16  1  0
 15 22  1  0
  2 24  1  0
  3 25  1  0
  4 26  1  0
  7 27  1  0
 12 28  1  0
 14 29  1  0
 16 30  1  0
 18 31  1  0
 19 32  1  0
 22 33  1  1
 22 34  1  0
 22 35  1  0
 23 36  1  1
 23 37  1  0
 23 38  1  0
M  END
>  <Pose ID>  (130)
111

>  <Score>  (130)
-6.858124256134033

>  <smiles>  (130)
Cc1cc(Nc2c[nH]c3nc4ccnc(C)c4c-3c2)[nH]c(=O)c1

$$$$

     RDKit          3D

 35 37  0  0  0  0  0  0  0  0999 V2000
   28.4000   10.0190  -11.5790 C   0  0  0  0  0  0  0  0  0  0  0  0
   29.1440    8.8450  -11.5560 C   0  0  0  0  0  0  0  0  0  0  0  0
   28.7330    7.7230  -10.8530 N   0  0  0  0  0  0  0  0  0  0  0  0
   27.5150    7.7520  -10.1810 C   0  0  0  0  0  0  0  0  0  0  0  0
   26.7310    8.8990  -10.2180 C   0  0  0  0  0  0  0  0  0  0  0  0
   27.1530    9.9990  -10.9370 C   0  0  0  0  0  0  0  0  0  0  0  0
   27.1300    6.7560   -9.5530 O   0  0  0  0  0  0  0  0  0  0  0  0
   30.3650    8.7860  -12.2190 N   0  0  0  0  0  0  0  0  0  0  0  0
   30.8370    9.8970  -12.9050 C   0  0  0  0  0  0  0  0  0  0  0  0
   30.0910   11.0700  -12.9280 C   0  0  0  0  0  0  0  0  0  0  0  0
   28.8670   11.1280  -12.2520 C   0  0  0  0  0  0  0  0  0  0  0  0
   25.5200    9.1790   -9.6350 N   0  0  0  0  0  0  0  0  0  0  0  0
   25.3290    9.1350   -8.1550 C   0  0  0  0  0  0  0  0  0  0  0  0
   24.6600    8.0410   -7.6190 C   0  0  0  0  0  0  0  0  0  0  0  0
   24.4510    7.9560   -6.2490 C   0  0  0  0  0  0  0  0  0  0  0  0
   24.9120    8.9660   -5.4130 C   0  0  0  0  0  0  0  0  0  0  0  0
   25.5790   10.0610   -5.9460 C   0  0  0  0  0  0  0  0  0  0  0  0
   25.7890   10.1460   -7.3180 N   0  0  0  0  0  0  0  0  0  0  0  0
   27.9600   12.1540  -12.1150 O   0  0  0  0  0  0  0  0  0  0  0  0
   28.3880   13.5090  -12.6060 C   0  0  1  0  0  0  0  0  0  0  0  0
   27.0990   14.3190  -12.5300 C   0  0  1  0  0  0  0  0  0  0  0  0
   29.3220    6.8784  -10.8285 H   0  0  0  0  0  0  0  0  0  0  0  0
   26.4971   10.8792  -11.0081 H   0  0  0  0  0  0  0  0  0  0  0  0
   31.8020    9.8491  -13.4308 H   0  0  0  0  0  0  0  0  0  0  0  0
   30.4615   11.9492  -13.4755 H   0  0  0  0  0  0  0  0  0  0  0  0
   24.7207    9.4264  -10.2356 H   0  0  0  0  0  0  0  0  0  0  0  0
   24.2957    7.2416   -8.2809 H   0  0  0  0  0  0  0  0  0  0  0  0
   23.9210    7.0900   -5.8257 H   0  0  0  0  0  0  0  0  0  0  0  0
   24.7482    8.8978   -4.3274 H   0  0  0  0  0  0  0  0  0  0  0  0
   25.9411   10.8608   -5.2833 H   0  0  0  0  0  0  0  0  0  0  0  0
   29.1647   13.9386  -11.9563 H   0  0  0  0  0  0  0  0  0  0  0  0
   28.8298   13.4875  -13.6131 H   0  0  0  0  0  0  0  0  0  0  0  0
   26.8327   14.4863  -11.4759 H   0  0  0  0  0  0  0  0  0  0  0  0
   27.2449   15.2881  -13.0296 H   0  0  0  0  0  0  0  0  0  0  0  0
   26.2892   13.7671  -13.0296 H   0  0  0  0  0  0  0  0  0  0  0  0
  1 11  1  0
  1  2  2  0
  1  6  1  0
  2  8  1  0
  2  3  1  0
  3  4  1  0
  4  5  1  0
  4  7  2  0
  5  6  2  0
  5 12  1  0
  8  9  2  0
  9 10  1  0
 10 11  2  0
 11 19  1  0
 12 13  1  0
 13 14  2  0
 13 18  1  0
 14 15  1  0
 15 16  2  0
 16 17  1  0
 17 18  2  0
 19 20  1  0
 20 21  1  0
  3 22  1  0
  6 23  1  0
  9 24  1  0
 10 25  1  0
 12 26  1  0
 14 27  1  0
 15 28  1  0
 16 29  1  0
 17 30  1  0
 20 31  1  1
 20 32  1  0
 21 33  1  1
 21 34  1  0
 21 35  1  0
M  END
>  <Pose ID>  (131)
177

>  <Score>  (131)
-6.852530002593994

>  <smiles>  (131)
CCOc1ccnc2[nH]c(=O)c(Nc3ccccn3)cc12

$$$$

     RDKit          3D

 35 38  0  0  0  0  0  0  0  0999 V2000
   27.1180    8.2590   -9.7080 C   0  0  0  0  0  0  0  0  0  0  0  0
   27.6760    7.1560  -10.3420 C   0  0  0  0  0  0  0  0  0  0  0  0
   28.6500    7.3330  -11.3180 N   0  0  0  0  0  0  0  0  0  0  0  0
   29.0700    8.6140  -11.6590 C   0  0  0  0  0  0  0  0  0  0  0  0
   26.1190    7.9030   -8.7070 O   0  0  0  0  0  0  0  0  0  0  0  0
   28.5080    9.7200  -11.0230 C   0  0  0  0  0  0  0  0  0  0  0  0
   27.5350    9.5400  -10.0470 C   0  0  0  0  0  0  0  0  0  0  0  0
   29.9820    9.0380  -12.5550 N   0  0  0  0  0  0  0  0  0  0  0  0
   30.0290   10.4130  -12.5240 C   0  0  0  0  0  0  0  0  0  0  0  0
   29.0580   10.6800  -11.5330 C   0  0  0  0  0  0  0  0  0  0  0  0
   25.6290    8.7870   -7.7370 C   0  0  0  0  0  0  0  0  0  0  0  0
   25.2760   10.0570   -8.1620 N   0  0  0  0  0  0  0  0  0  0  0  0
   24.8510   10.7730   -7.0580 N   0  0  0  0  0  0  0  0  0  0  0  0
   24.9240    9.9740   -5.9830 C   0  0  0  0  0  0  0  0  0  0  0  0
   25.3720    8.7800   -6.3780 C   0  0  0  0  0  0  0  0  0  0  0  0
   24.4320   12.0380   -7.0750 C   0  0  0  0  0  0  0  0  0  0  0  0
   24.3850   12.7970   -8.2390 C   0  0  0  0  0  0  0  0  0  0  0  0
   23.7480   12.4620   -5.9420 N   0  0  0  0  0  0  0  0  0  0  0  0
   23.6540   13.9780   -8.2700 C   0  0  0  0  0  0  0  0  0  0  0  0
   23.0160   13.6440   -5.9720 C   0  0  0  0  0  0  0  0  0  0  0  0
   22.9430   14.4000   -7.1450 C   0  0  0  0  0  0  0  0  0  0  0  0
   25.1280   12.3360   -9.4680 C   0  0  1  0  0  0  0  0  0  0  0  0
   27.3469    6.1418  -10.0715 H   0  0  0  0  0  0  0  0  0  0  0  0
   29.0610    6.5144  -11.7891 H   0  0  0  0  0  0  0  0  0  0  0  0
   27.0947   10.4127   -9.5425 H   0  0  0  0  0  0  0  0  0  0  0  0
   30.6491   11.1094  -13.1075 H   0  0  0  0  0  0  0  0  0  0  0  0
   28.8096   11.7093  -11.2351 H   0  0  0  0  0  0  0  0  0  0  0  0
   24.6600   10.2545   -4.9526 H   0  0  0  0  0  0  0  0  0  0  0  0
   25.5163    7.9133   -5.7162 H   0  0  0  0  0  0  0  0  0  0  0  0
   23.6353   14.5848   -9.1873 H   0  0  0  0  0  0  0  0  0  0  0  0
   22.4916   13.9857   -5.0675 H   0  0  0  0  0  0  0  0  0  0  0  0
   22.3337   15.3151   -7.1815 H   0  0  0  0  0  0  0  0  0  0  0  0
   26.0267   11.7784   -9.1655 H   0  0  0  0  0  0  0  0  0  0  0  0
   24.4761   11.6835  -10.0674 H   0  0  0  0  0  0  0  0  0  0  0  0
   25.4231   13.2099  -10.0674 H   0  0  0  0  0  0  0  0  0  0  0  0
 11  5  1  0
 11 12  2  0
 11 15  1  0
 12 13  1  0
 13 16  1  0
 13 14  1  0
 14 15  2  0
 16 17  2  0
 16 18  1  0
 17 22  1  0
 17 19  1  0
 18 20  2  0
 19 21  2  0
 20 21  1  0
  5  1  1  0
  1  2  2  0
  1  7  1  0
  2  3  1  0
  3  4  1  0
  4  8  2  0
  4  6  1  0
  6 10  1  0
  6  7  2  0
  8  9  1  0
  9 10  2  0
  2 23  1  0
  3 24  1  0
  7 25  1  0
  9 26  1  0
 10 27  1  0
 14 28  1  0
 15 29  1  0
 19 30  1  0
 20 31  1  0
 21 32  1  0
 22 33  1  1
 22 34  1  0
 22 35  1  0
M  END
>  <Pose ID>  (132)
440

>  <Score>  (132)
-6.841928958892822

>  <smiles>  (132)
Cc1cccnc1-n1ccc(Oc2c[nH]c3nccc-3c2)n1

$$$$

     RDKit          3D

 34 37  0  0  0  0  0  0  0  0999 V2000
   27.0410    8.4500   -9.5060 C   0  0  0  0  0  0  0  0  0  0  0  0
   27.2240    7.3320   -8.6990 N   0  0  0  0  0  0  0  0  0  0  0  0
   26.3900    7.1220   -7.6060 C   0  0  0  0  0  0  0  0  0  0  0  0
   25.3740    8.0290   -7.3200 C   0  0  0  0  0  0  0  0  0  0  0  0
   25.1920    9.1450   -8.1290 N   0  0  0  0  0  0  0  0  0  0  0  0
   26.0280    9.3560   -9.2210 C   0  0  0  0  0  0  0  0  0  0  0  0
   24.4520    7.9760   -6.2820 C   0  0  0  0  0  0  0  0  0  0  0  0
   24.4250    6.9170   -5.3830 C   0  0  0  0  0  0  0  0  0  0  0  0
   23.5230    9.0050   -6.1720 C   0  0  0  0  0  0  0  0  0  0  0  0
   23.4700    6.8830   -4.3770 N   0  0  0  0  0  0  0  0  0  0  0  0
   22.5400    7.9110   -4.2670 C   0  0  0  0  0  0  0  0  0  0  0  0
   23.9440    9.8430   -7.4000 N   0  0  0  0  0  0  0  0  0  0  0  0
   22.5660    8.9710   -5.1650 C   0  0  0  0  0  0  0  0  0  0  0  0
   27.8850    8.6610  -10.6100 C   0  0  0  0  0  0  0  0  0  0  0  0
   28.7230    9.7660  -10.7160 O   0  0  0  0  0  0  0  0  0  0  0  0
   28.0180    7.8670  -11.7130 N   0  0  0  0  0  0  0  0  0  0  0  0
   29.3380    9.5780  -11.9310 C   0  0  0  0  0  0  0  0  0  0  0  0
   28.9130    8.4190  -12.5630 C   0  0  0  0  0  0  0  0  0  0  0  0
   21.5560   10.0860   -5.0470 C   0  0  1  0  0  0  0  0  0  0  0  0
   21.1810   10.3770   -3.6210 C   0  0  1  0  0  0  0  0  0  0  0  0
   30.3590   10.5240  -12.5110 C   0  0  1  0  0  0  0  0  0  0  0  0
   26.5336    6.2382   -6.9670 H   0  0  0  0  0  0  0  0  0  0  0  0
   25.8864   10.2409   -9.8589 H   0  0  0  0  0  0  0  0  0  0  0  0
   25.1616    6.1046   -5.4689 H   0  0  0  0  0  0  0  0  0  0  0  0
   21.7835    7.8850   -3.4688 H   0  0  0  0  0  0  0  0  0  0  0  0
   29.2339    8.0331  -13.5418 H   0  0  0  0  0  0  0  0  0  0  0  0
   21.9830   10.9968   -5.4920 H   0  0  0  0  0  0  0  0  0  0  0  0
   20.6442    9.7669   -5.5730 H   0  0  0  0  0  0  0  0  0  0  0  0
   21.8669    9.8447   -2.9456 H   0  0  0  0  0  0  0  0  0  0  0  0
   21.2514   11.4592   -3.4369 H   0  0  0  0  0  0  0  0  0  0  0  0
   20.1502   10.0401   -3.4369 H   0  0  0  0  0  0  0  0  0  0  0  0
   30.8999   11.0251  -11.6947 H   0  0  0  0  0  0  0  0  0  0  0  0
   31.0714    9.9597  -13.1307 H   0  0  0  0  0  0  0  0  0  0  0  0
   29.8505   11.2773  -13.1307 H   0  0  0  0  0  0  0  0  0  0  0  0
  1 14  1  0
  1  6  2  0
  1  2  1  0
  2  3  2  0
  3  4  1  0
  4  5  1  0
  4  7  2  0
  5  6  1  0
  5 12  1  0
  7  9  1  0
  7  8  1  0
  8 10  2  0
  9 12  2  0
  9 13  1  0
 10 11  1  0
 11 13  2  0
 13 19  1  0
 14 16  2  0
 14 15  1  0
 15 17  1  0
 16 18  1  0
 17 18  2  0
 17 21  1  0
 19 20  1  0
  3 22  1  0
  6 23  1  0
  8 24  1  0
 11 25  1  0
 18 26  1  0
 19 27  1  6
 19 28  1  0
 20 29  1  1
 20 30  1  0
 20 31  1  0
 21 32  1  1
 21 33  1  0
 21 34  1  0
M  END
>  <Pose ID>  (133)
62

>  <Score>  (133)
-6.829929351806641

>  <smiles>  (133)
CCc1cncc2c1nn1cc(-c3ncc(C)o3)ncc21

$$$$

     RDKit          3D

 36 39  0  0  0  0  0  0  0  0999 V2000
   27.2850    7.8110  -10.1490 C   0  0  0  0  0  0  0  0  0  0  0  0
   28.4410    7.1070  -10.4470 C   0  0  0  0  0  0  0  0  0  0  0  0
   29.4160    7.6840  -11.2520 N   0  0  0  0  0  0  0  0  0  0  0  0
   26.5030    7.0600   -9.3570 N   0  0  0  0  0  0  0  0  0  0  0  0
   29.2370    8.9680  -11.7520 C   0  0  0  0  0  0  0  0  0  0  0  0
   28.0780    9.6730  -11.4510 C   0  0  0  0  0  0  0  0  0  0  0  0
   27.1030    9.0970  -10.6500 C   0  0  0  0  0  0  0  0  0  0  0  0
   30.0240    9.7250  -12.5330 N   0  0  0  0  0  0  0  0  0  0  0  0
   29.4100   10.8940  -12.7430 C   0  0  0  0  0  0  0  0  0  0  0  0
   28.1880   10.8530  -12.0820 C   0  0  0  0  0  0  0  0  0  0  0  0
   25.8600    7.5670   -8.1870 C   0  0  0  0  0  0  0  0  0  0  0  0
   25.2440    6.6640   -7.3280 N   0  0  0  0  0  0  0  0  0  0  0  0
   24.5070    7.1240   -6.2450 C   0  0  0  0  0  0  0  0  0  0  0  0
   24.3840    8.4930   -6.0200 C   0  0  0  0  0  0  0  0  0  0  0  0
   25.0000    9.3970   -6.8800 C   0  0  0  0  0  0  0  0  0  0  0  0
   25.7610    8.9300   -7.9470 C   0  0  0  0  0  0  0  0  0  0  0  0
   23.9570    6.3160   -5.4760 O   0  0  0  0  0  0  0  0  0  0  0  0
   29.7690   12.0230  -13.4690 C   0  0  0  0  0  0  0  0  0  0  0  0
   28.9060   13.1120  -13.5340 N   0  0  0  0  0  0  0  0  0  0  0  0
   27.6850   13.0700  -12.8730 C   0  0  0  0  0  0  0  0  0  0  0  0
   27.3250   11.9410  -12.1470 C   0  0  0  0  0  0  0  0  0  0  0  0
   26.8310   14.1490  -12.9370 O   0  0  0  0  0  0  0  0  0  0  0  0
   27.3690   15.2240  -12.1780 C   0  0  1  0  0  0  0  0  0  0  0  0
   28.5867    6.0928  -10.0469 H   0  0  0  0  0  0  0  0  0  0  0  0
   30.2727    7.1589  -11.4783 H   0  0  0  0  0  0  0  0  0  0  0  0
   26.3600    6.0706   -9.6052 H   0  0  0  0  0  0  0  0  0  0  0  0
   26.1864    9.6561  -10.4108 H   0  0  0  0  0  0  0  0  0  0  0  0
   25.3345    5.6517   -7.4953 H   0  0  0  0  0  0  0  0  0  0  0  0
   23.8001    8.8594   -5.1628 H   0  0  0  0  0  0  0  0  0  0  0  0
   24.8855   10.4787   -6.7166 H   0  0  0  0  0  0  0  0  0  0  0  0
   26.2849    9.6424   -8.6013 H   0  0  0  0  0  0  0  0  0  0  0  0
   30.7359   12.0556  -13.9925 H   0  0  0  0  0  0  0  0  0  0  0  0
   26.3578   11.9083  -11.6241 H   0  0  0  0  0  0  0  0  0  0  0  0
   27.2600   15.0061  -11.1053 H   0  0  0  0  0  0  0  0  0  0  0  0
   28.4348   15.3469  -12.4207 H   0  0  0  0  0  0  0  0  0  0  0  0
   26.8285   16.1508  -12.4207 H   0  0  0  0  0  0  0  0  0  0  0  0
  1  7  1  0
  1  2  2  0
  1  4  1  0
  2  3  1  0
  3  5  1  0
  5  8  2  0
  5  6  1  0
  6 10  1  0
  6  7  2  0
  8  9  1  0
  9 18  1  0
  9 10  2  0
 10 21  1  0
 18 19  2  0
 19 20  1  0
 20 22  1  0
 20 21  2  0
  4 11  1  0
 11 16  2  0
 11 12  1  0
 12 13  1  0
 13 14  1  0
 13 17  2  0
 14 15  2  0
 15 16  1  0
 22 23  1  0
  2 24  1  0
  3 25  1  0
  4 26  1  0
  7 27  1  0
 12 28  1  0
 14 29  1  0
 15 30  1  0
 16 31  1  0
 18 32  1  0
 21 33  1  0
 23 34  1  1
 23 35  1  0
 23 36  1  0
M  END
>  <Pose ID>  (134)
117

>  <Score>  (134)
-6.821707725524902

>  <smiles>  (134)
COc1cc2c3cc(Nc4cccc(=O)[nH]4)c[nH]c-3nc2cn1

$$$$

     RDKit          3D

 38 41  0  0  0  0  0  0  0  0999 V2000
   26.7680    8.7750   -9.9120 C   0  0  0  0  0  0  0  0  0  0  0  0
   27.1470    7.4610  -10.1510 C   0  0  0  0  0  0  0  0  0  0  0  0
   28.2600    7.1920  -10.9410 N   0  0  0  0  0  0  0  0  0  0  0  0
   28.9910    8.2350  -11.4900 C   0  0  0  0  0  0  0  0  0  0  0  0
   25.5870    8.8880   -9.0590 O   0  0  0  0  0  0  0  0  0  0  0  0
   28.6120    9.5530  -11.2500 C   0  0  0  0  0  0  0  0  0  0  0  0
   27.5000    9.8200  -10.4590 C   0  0  0  0  0  0  0  0  0  0  0  0
   30.0880    8.2310  -12.2730 N   0  0  0  0  0  0  0  0  0  0  0  0
   30.4360    9.5320  -12.5590 C   0  0  0  0  0  0  0  0  0  0  0  0
   29.4240   10.2250  -11.8600 C   0  0  0  0  0  0  0  0  0  0  0  0
   25.1810   10.0740   -8.4350 C   0  0  0  0  0  0  0  0  0  0  0  0
   25.1810   11.2260   -9.2050 N   0  0  0  0  0  0  0  0  0  0  0  0
   24.7800   12.2780   -8.4010 N   0  0  0  0  0  0  0  0  0  0  0  0
   24.5280   11.7990   -7.1750 C   0  0  0  0  0  0  0  0  0  0  0  0
   24.7480   10.4800   -7.1840 C   0  0  0  0  0  0  0  0  0  0  0  0
   24.6750   13.5730   -8.8420 C   0  0  0  0  0  0  0  0  0  0  0  0
   25.6270   14.0700   -9.7240 C   0  0  0  0  0  0  0  0  0  0  0  0
   25.5640   15.3950  -10.1390 N   0  0  0  0  0  0  0  0  0  0  0  0
   23.6600   14.4020   -8.3730 C   0  0  0  0  0  0  0  0  0  0  0  0
   23.5970   15.7250   -8.7900 C   0  0  0  0  0  0  0  0  0  0  0  0
   24.5470   16.2220   -9.6520 C   0  0  0  0  0  0  0  0  0  0  0  0
   24.5530    9.5650   -6.0000 C   0  0  1  0  0  0  0  0  0  0  0  0
   26.7290   13.1720  -10.2310 C   0  0  1  0  0  0  0  0  0  0  0  0
   26.5677    6.6332   -9.7160 H   0  0  0  0  0  0  0  0  0  0  0  0
   28.5415    6.2172  -11.1184 H   0  0  0  0  0  0  0  0  0  0  0  0
   27.2000   10.8606  -10.2665 H   0  0  0  0  0  0  0  0  0  0  0  0
   31.2688    9.9220  -13.1627 H   0  0  0  0  0  0  0  0  0  0  0  0
   29.3712   11.3237  -11.8661 H   0  0  0  0  0  0  0  0  0  0  0  0
   24.1966   12.3903   -6.3087 H   0  0  0  0  0  0  0  0  0  0  0  0
   22.9083   14.0094   -7.6725 H   0  0  0  0  0  0  0  0  0  0  0  0
   22.7866   16.3763   -8.4307 H   0  0  0  0  0  0  0  0  0  0  0  0
   24.5063   17.2771   -9.9603 H   0  0  0  0  0  0  0  0  0  0  0  0
   24.6752   10.1385   -5.0693 H   0  0  0  0  0  0  0  0  0  0  0  0
   23.5424    9.1319   -6.0338 H   0  0  0  0  0  0  0  0  0  0  0  0
   25.2992    8.7575   -6.0338 H   0  0  0  0  0  0  0  0  0  0  0  0
   27.2668   12.7338   -9.3773 H   0  0  0  0  0  0  0  0  0  0  0  0
   26.2943   12.3676  -10.8426 H   0  0  0  0  0  0  0  0  0  0  0  0
   27.4291   13.7601  -10.8426 H   0  0  0  0  0  0  0  0  0  0  0  0
 11 12  2  0
 11  5  1  0
 11 15  1  0
 12 13  1  0
 13 16  1  0
 13 14  1  0
 14 15  2  0
 15 22  1  0
 16 17  2  0
 16 19  1  0
 17 23  1  0
 17 18  1  0
 18 21  2  0
 19 20  2  0
 20 21  1  0
  5  1  1  0
  1  7  1  0
  1  2  2  0
  2  3  1  0
  3  4  1  0
  4  8  2  0
  4  6  1  0
  6 10  1  0
  6  7  2  0
  8  9  1  0
  9 10  2  0
  2 24  1  0
  3 25  1  0
  7 26  1  0
  9 27  1  0
 10 28  1  0
 14 29  1  0
 19 30  1  0
 20 31  1  0
 21 32  1  0
 22 33  1  1
 22 34  1  0
 22 35  1  0
 23 36  1  1
 23 37  1  0
 23 38  1  0
M  END
>  <Pose ID>  (135)
267

>  <Score>  (135)
-6.811525821685791

>  <smiles>  (135)
Cc1cn(-c2cccnc2C)nc1Oc1c[nH]c2nccc-2c1

$$$$

     RDKit          3D

 35 38  0  0  0  0  0  0  0  0999 V2000
   27.3690    7.9900  -10.2570 C   0  0  0  0  0  0  0  0  0  0  0  0
   28.4130    7.1910  -10.6960 C   0  0  0  0  0  0  0  0  0  0  0  0
   29.4110    7.7330  -11.4980 N   0  0  0  0  0  0  0  0  0  0  0  0
   26.5410    7.2560   -9.4970 N   0  0  0  0  0  0  0  0  0  0  0  0
   29.3660    9.0750  -11.8560 C   0  0  0  0  0  0  0  0  0  0  0  0
   28.3190    9.8740  -11.4140 C   0  0  0  0  0  0  0  0  0  0  0  0
   27.3210    9.3350  -10.6150 C   0  0  0  0  0  0  0  0  0  0  0  0
   30.2000    9.8130  -12.6050 N   0  0  0  0  0  0  0  0  0  0  0  0
   29.7240   11.0620  -12.6580 C   0  0  0  0  0  0  0  0  0  0  0  0
   28.5410   11.0940  -11.9300 C   0  0  0  0  0  0  0  0  0  0  0  0
   26.0240    7.7060   -8.2450 C   0  0  0  0  0  0  0  0  0  0  0  0
   25.3460    6.7950   -7.4430 N   0  0  0  0  0  0  0  0  0  0  0  0
   24.7260    7.2210   -6.2760 C   0  0  0  0  0  0  0  0  0  0  0  0
   24.7840    8.5620   -5.9080 C   0  0  0  0  0  0  0  0  0  0  0  0
   25.4620    9.4750   -6.7100 C   0  0  0  0  0  0  0  0  0  0  0  0
   26.1060    9.0390   -7.8630 C   0  0  0  0  0  0  0  0  0  0  0  0
   24.1210    6.4050   -5.5590 O   0  0  0  0  0  0  0  0  0  0  0  0
   30.1830   12.2130  -13.2890 C   0  0  0  0  0  0  0  0  0  0  0  0
   29.4590   13.3960  -13.1900 N   0  0  0  0  0  0  0  0  0  0  0  0
   28.2760   13.4260  -12.4620 C   0  0  0  0  0  0  0  0  0  0  0  0
   27.8160   12.2760  -11.8320 C   0  0  0  0  0  0  0  0  0  0  0  0
   26.5310   12.3110  -11.0410 C   0  0  1  0  0  0  0  0  0  0  0  0
   28.4519    6.1295  -10.4103 H   0  0  0  0  0  0  0  0  0  0  0  0
   30.1851    7.1388  -11.8274 H   0  0  0  0  0  0  0  0  0  0  0  0
   26.2653    6.3225   -9.8338 H   0  0  0  0  0  0  0  0  0  0  0  0
   26.4931    9.9690  -10.2648 H   0  0  0  0  0  0  0  0  0  0  0  0
   25.3036    5.8025   -7.7150 H   0  0  0  0  0  0  0  0  0  0  0  0
   24.2939    8.9002   -4.9831 H   0  0  0  0  0  0  0  0  0  0  0  0
   25.4885   10.5391   -6.4327 H   0  0  0  0  0  0  0  0  0  0  0  0
   26.6812    9.7508   -8.4733 H   0  0  0  0  0  0  0  0  0  0  0  0
   31.1189   12.1876  -13.8665 H   0  0  0  0  0  0  0  0  0  0  0  0
   27.7026   14.3615  -12.3842 H   0  0  0  0  0  0  0  0  0  0  0  0
   26.7621   12.3047   -9.9656 H   0  0  0  0  0  0  0  0  0  0  0  0
   25.9716   13.2247  -11.2905 H   0  0  0  0  0  0  0  0  0  0  0  0
   25.9227   11.4291  -11.2905 H   0  0  0  0  0  0  0  0  0  0  0  0
  1  2  2  0
  1  7  1  0
  1  4  1  0
  2  3  1  0
  3  5  1  0
  5  8  2  0
  5  6  1  0
  6 10  1  0
  6  7  2  0
  8  9  1  0
  9 18  1  0
  9 10  2  0
 10 21  1  0
 18 19  2  0
 19 20  1  0
 20 21  2  0
 21 22  1  0
  4 11  1  0
 11 16  2  0
 11 12  1  0
 12 13  1  0
 13 14  1  0
 13 17  2  0
 14 15  2  0
 15 16  1  0
  2 23  1  0
  3 24  1  0
  4 25  1  0
  7 26  1  0
 12 27  1  0
 14 28  1  0
 15 29  1  0
 16 30  1  0
 18 31  1  0
 20 32  1  0
 22 33  1  1
 22 34  1  0
 22 35  1  0
M  END
>  <Pose ID>  (136)
116

>  <Score>  (136)
-6.81065034866333

>  <smiles>  (136)
Cc1cncc2nc3[nH]cc(Nc4cccc(=O)[nH]4)cc-3c12

$$$$

     RDKit          3D

 32 34  0  0  0  0  0  0  0  0999 V2000
   28.3300    9.9060  -11.5720 C   0  0  0  0  0  0  0  0  0  0  0  0
   29.0800    8.7440  -11.4390 C   0  0  0  0  0  0  0  0  0  0  0  0
   28.6610    7.6790  -10.6550 N   0  0  0  0  0  0  0  0  0  0  0  0
   27.4280    7.7550  -10.0150 C   0  0  0  0  0  0  0  0  0  0  0  0
   26.6380    8.8890  -10.1620 C   0  0  0  0  0  0  0  0  0  0  0  0
   27.0700    9.9300  -10.9600 C   0  0  0  0  0  0  0  0  0  0  0  0
   27.0340    6.8090   -9.3150 O   0  0  0  0  0  0  0  0  0  0  0  0
   30.3160    8.6400  -12.0690 N   0  0  0  0  0  0  0  0  0  0  0  0
   30.7970    9.6950  -12.8330 C   0  0  0  0  0  0  0  0  0  0  0  0
   30.0450   10.8560  -12.9670 C   0  0  0  0  0  0  0  0  0  0  0  0
   28.8070   10.9590  -12.3250 C   0  0  0  0  0  0  0  0  0  0  0  0
   25.4130    9.2080   -9.6300 N   0  0  0  0  0  0  0  0  0  0  0  0
   25.1820    9.2770   -8.1660 C   0  0  0  0  0  0  0  0  0  0  0  0
   24.5140    8.2260   -7.5490 C   0  0  0  0  0  0  0  0  0  0  0  0
   24.2830    8.2570   -6.1800 C   0  0  0  0  0  0  0  0  0  0  0  0
   24.7200    9.3410   -5.4260 C   0  0  0  0  0  0  0  0  0  0  0  0
   25.3880   10.3920   -6.0420 C   0  0  0  0  0  0  0  0  0  0  0  0
   25.6190   10.3600   -7.4120 C   0  0  0  0  0  0  0  0  0  0  0  0
   25.8620   11.5670   -5.2240 C   0  0  1  0  0  0  0  0  0  0  0  0
   29.2543    6.8438  -10.5482 H   0  0  0  0  0  0  0  0  0  0  0  0
   26.4109   10.7963  -11.1185 H   0  0  0  0  0  0  0  0  0  0  0  0
   31.7736    9.6118  -13.3323 H   0  0  0  0  0  0  0  0  0  0  0  0
   30.4222   11.6909  -13.5758 H   0  0  0  0  0  0  0  0  0  0  0  0
   28.2132   11.8800  -12.4204 H   0  0  0  0  0  0  0  0  0  0  0  0
   24.6290    9.4058  -10.2680 H   0  0  0  0  0  0  0  0  0  0  0  0
   24.1680    7.3690   -8.1455 H   0  0  0  0  0  0  0  0  0  0  0  0
   23.7547    7.4246   -5.6921 H   0  0  0  0  0  0  0  0  0  0  0  0
   24.5367    9.3662   -4.3417 H   0  0  0  0  0  0  0  0  0  0  0  0
   26.1479   11.1920   -7.8999 H   0  0  0  0  0  0  0  0  0  0  0  0
   25.7668   11.3310   -4.1538 H   0  0  0  0  0  0  0  0  0  0  0  0
   26.9154   11.7775   -5.4608 H   0  0  0  0  0  0  0  0  0  0  0  0
   25.2495   12.4495   -5.4608 H   0  0  0  0  0  0  0  0  0  0  0  0
  1 11  1  0
  1  2  2  0
  1  6  1  0
  2  8  1  0
  2  3  1  0
  3  4  1  0
  4  5  1  0
  4  7  2  0
  5  6  2  0
  5 12  1  0
  8  9  2  0
  9 10  1  0
 10 11  2  0
 12 13  1  0
 13 14  2  0
 13 18  1  0
 14 15  1  0
 15 16  2  0
 16 17  1  0
 17 18  2  0
 17 19  1  0
  3 20  1  0
  6 21  1  0
  9 22  1  0
 10 23  1  0
 11 24  1  0
 12 25  1  0
 14 26  1  0
 15 27  1  0
 16 28  1  0
 18 29  1  0
 19 30  1  1
 19 31  1  0
 19 32  1  0
M  END
>  <Pose ID>  (137)
182

>  <Score>  (137)
-6.805346965789795

>  <smiles>  (137)
Cc1cccc(Nc2cc3cccnc3[nH]c2=O)c1

$$$$

     RDKit          3D

 38 41  0  0  0  0  0  0  0  0999 V2000
   26.7950    8.7490   -9.8620 C   0  0  0  0  0  0  0  0  0  0  0  0
   27.2110    7.4500  -10.1230 C   0  0  0  0  0  0  0  0  0  0  0  0
   28.3210    7.2250  -10.9300 N   0  0  0  0  0  0  0  0  0  0  0  0
   29.0130    8.2970  -11.4760 C   0  0  0  0  0  0  0  0  0  0  0  0
   25.6230    8.8150   -8.9920 O   0  0  0  0  0  0  0  0  0  0  0  0
   28.5970    9.5990  -11.2140 C   0  0  0  0  0  0  0  0  0  0  0  0
   27.4880    9.8220  -10.4060 C   0  0  0  0  0  0  0  0  0  0  0  0
   30.0980    8.3360  -12.2730 N   0  0  0  0  0  0  0  0  0  0  0  0
   30.4020    9.6510  -12.5480 C   0  0  0  0  0  0  0  0  0  0  0  0
   29.3790   10.3030  -11.8260 C   0  0  0  0  0  0  0  0  0  0  0  0
   25.1890    9.9800   -8.3480 C   0  0  0  0  0  0  0  0  0  0  0  0
   25.1440   11.1410   -9.1030 N   0  0  0  0  0  0  0  0  0  0  0  0
   24.7210   12.1690   -8.2810 N   0  0  0  0  0  0  0  0  0  0  0  0
   24.5000   11.6680   -7.0580 C   0  0  0  0  0  0  0  0  0  0  0  0
   24.7610   10.3560   -7.0870 C   0  0  0  0  0  0  0  0  0  0  0  0
   24.5710   13.4660   -8.7040 C   0  0  0  0  0  0  0  0  0  0  0  0
   25.4950   14.0030   -9.5920 C   0  0  0  0  0  0  0  0  0  0  0  0
   25.3850   15.3310   -9.9900 N   0  0  0  0  0  0  0  0  0  0  0  0
   23.5370   14.2570   -8.2120 C   0  0  0  0  0  0  0  0  0  0  0  0
   23.4280   15.5830   -8.6110 C   0  0  0  0  0  0  0  0  0  0  0  0
   24.3500   16.1200   -9.4790 C   0  0  0  0  0  0  0  0  0  0  0  0
   24.6100    9.4220   -5.9120 C   0  0  1  0  0  0  0  0  0  0  0  0
   24.0360   12.4490   -5.8540 C   0  0  1  0  0  0  0  0  0  0  0  0
   26.6628    6.5995   -9.6916 H   0  0  0  0  0  0  0  0  0  0  0  0
   28.6300    6.2615  -11.1227 H   0  0  0  0  0  0  0  0  0  0  0  0
   27.1589   10.8506  -10.1972 H   0  0  0  0  0  0  0  0  0  0  0  0
   31.2135   10.0740  -13.1584 H   0  0  0  0  0  0  0  0  0  0  0  0
   29.2923   11.3995  -11.8169 H   0  0  0  0  0  0  0  0  0  0  0  0
   26.3130   13.3781   -9.9799 H   0  0  0  0  0  0  0  0  0  0  0  0
   22.8066   13.8324   -7.5076 H   0  0  0  0  0  0  0  0  0  0  0  0
   22.6032   16.2045   -8.2323 H   0  0  0  0  0  0  0  0  0  0  0  0
   24.2726   17.1771   -9.7731 H   0  0  0  0  0  0  0  0  0  0  0  0
   24.7022    9.9924   -4.9760 H   0  0  0  0  0  0  0  0  0  0  0  0
   23.6222    8.9396   -5.9516 H   0  0  0  0  0  0  0  0  0  0  0  0
   25.3955    8.6529   -5.9516 H   0  0  0  0  0  0  0  0  0  0  0  0
   24.3461   11.9271   -4.9367 H   0  0  0  0  0  0  0  0  0  0  0  0
   24.4839   13.4535   -5.8736 H   0  0  0  0  0  0  0  0  0  0  0  0
   22.9396   12.5360   -5.8736 H   0  0  0  0  0  0  0  0  0  0  0  0
 11 12  2  0
 11  5  1  0
 11 15  1  0
 12 13  1  0
 13 16  1  0
 13 14  1  0
 14 15  2  0
 14 23  1  0
 15 22  1  0
 16 17  2  0
 16 19  1  0
 17 18  1  0
 18 21  2  0
 19 20  2  0
 20 21  1  0
  5  1  1  0
  1  7  1  0
  1  2  2  0
  2  3  1  0
  3  4  1  0
  4  8  2  0
  4  6  1  0
  6 10  1  0
  6  7  2  0
  8  9  1  0
  9 10  2  0
  2 24  1  0
  3 25  1  0
  7 26  1  0
  9 27  1  0
 10 28  1  0
 17 29  1  0
 19 30  1  0
 20 31  1  0
 21 32  1  0
 22 33  1  1
 22 34  1  0
 22 35  1  0
 23 36  1  1
 23 37  1  0
 23 38  1  0
M  END
>  <Pose ID>  (138)
268

>  <Score>  (138)
-6.798213481903076

>  <smiles>  (138)
Cc1c(Oc2c[nH]c3nccc-3c2)nn(-c2cccnc2)c1C

$$$$

     RDKit          3D

 38 41  0  0  0  0  0  0  0  0999 V2000
   26.4360    6.6680   -8.4410 C   0  0  0  0  0  0  0  0  0  0  0  0
   27.4770    7.2170   -9.1810 N   0  0  0  0  0  0  0  0  0  0  0  0
   25.3530    7.4590   -8.0750 N   0  0  0  0  0  0  0  0  0  0  0  0
   25.3030    8.7320   -8.4490 C   0  0  0  0  0  0  0  0  0  0  0  0
   26.2420    9.4850   -9.1450 C   0  0  0  0  0  0  0  0  0  0  0  0
   27.4310    8.5510   -9.5610 C   0  0  0  0  0  0  0  0  0  0  0  0
   24.1450    9.3310   -7.9720 N   0  0  0  0  0  0  0  0  0  0  0  0
   23.9250   10.6850   -8.1900 C   0  0  0  0  0  0  0  0  0  0  0  0
   24.8610   11.4400   -8.8860 N   0  0  0  0  0  0  0  0  0  0  0  0
   26.0210   10.8530   -9.3630 C   0  0  0  0  0  0  0  0  0  0  0  0
   26.9770   11.6130  -10.1040 C   0  0  0  0  0  0  0  0  0  0  0  0
   27.2360   11.1160  -11.3770 C   0  0  0  0  0  0  0  0  0  0  0  0
   27.7470   12.6500   -9.5950 C   0  0  0  0  0  0  0  0  0  0  0  0
   28.7030   13.1420  -10.3440 C   0  0  0  0  0  0  0  0  0  0  0  0
   29.0190   12.6870  -11.6180 C   0  0  0  0  0  0  0  0  0  0  0  0
   28.2670   11.6560  -12.1370 C   0  0  0  0  0  0  0  0  0  0  0  0
   30.0820   13.2490  -12.3140 C   0  0  0  0  0  0  0  0  0  0  0  0
   29.4520   14.1590   -9.7640 C   0  0  0  0  0  0  0  0  0  0  0  0
   30.5160   14.7220  -10.4590 C   0  0  0  0  0  0  0  0  0  0  0  0
   30.8320   14.2670  -11.7330 N   0  0  0  0  0  0  0  0  0  0  0  0
   30.5120   12.8730  -13.6890 C   0  0  1  0  0  0  0  0  0  0  0  0
   29.1090   14.6540   -8.3810 C   0  0  1  0  0  0  0  0  0  0  0  0
   27.8790   15.5250   -8.5180 C   0  0  1  0  0  0  0  0  0  0  0  0
   26.4692    5.6090   -8.1454 H   0  0  0  0  0  0  0  0  0  0  0  0
   28.2493    8.9636  -10.1694 H   0  0  0  0  0  0  0  0  0  0  0  0
   23.0083   11.1604   -7.8110 H   0  0  0  0  0  0  0  0  0  0  0  0
   26.6251   10.2959  -11.7822 H   0  0  0  0  0  0  0  0  0  0  0  0
   27.5591   13.0490   -8.5873 H   0  0  0  0  0  0  0  0  0  0  0  0
   28.4802   11.2641  -13.1425 H   0  0  0  0  0  0  0  0  0  0  0  0
   31.1078   15.5278  -10.0002 H   0  0  0  0  0  0  0  0  0  0  0  0
   31.3389   12.1500  -13.6297 H   0  0  0  0  0  0  0  0  0  0  0  0
   29.6662   12.4195  -14.2265 H   0  0  0  0  0  0  0  0  0  0  0  0
   30.8486   13.7717  -14.2265 H   0  0  0  0  0  0  0  0  0  0  0  0
   28.8979   13.8033   -7.7164 H   0  0  0  0  0  0  0  0  0  0  0  0
   29.9460   15.2204   -7.9468 H   0  0  0  0  0  0  0  0  0  0  0  0
   27.5044   15.7903   -7.5184 H   0  0  0  0  0  0  0  0  0  0  0  0
   28.1383   16.4419   -9.0676 H   0  0  0  0  0  0  0  0  0  0  0  0
   27.1003   14.9759   -9.0676 H   0  0  0  0  0  0  0  0  0  0  0  0
 11 12  2  0
 11 13  1  0
 11 10  1  0
 12 16  1  0
 13 14  2  0
 14 15  1  0
 14 18  1  0
 15 17  1  0
 15 16  2  0
 17 21  1  0
 17 20  2  0
 18 19  2  0
 18 22  1  0
 19 20  1  0
  1  2  2  0
  1  3  1  0
  2  6  1  0
  3  4  2  0
  4  5  1  0
  4  7  1  0
  5  6  2  0
  5 10  1  0
  7  8  2  0
  8  9  1  0
  9 10  2  0
 22 23  1  0
  1 24  1  0
  6 25  1  0
  8 26  1  0
 12 27  1  0
 13 28  1  0
 16 29  1  0
 19 30  1  0
 21 31  1  1
 21 32  1  0
 21 33  1  0
 22 34  1  1
 22 35  1  0
 23 36  1  1
 23 37  1  0
 23 38  1  0
M  END
>  <Pose ID>  (139)
44

>  <Score>  (139)
-6.78679895401001

>  <smiles>  (139)
CCc1cnc(C)c2ccc(-c3ncnc4ncncc34)cc12

$$$$

     RDKit          3D

 36 39  0  0  0  0  0  0  0  0999 V2000
   27.3780    7.9480  -10.2410 C   0  0  0  0  0  0  0  0  0  0  0  0
   28.4570    7.1710  -10.6320 C   0  0  0  0  0  0  0  0  0  0  0  0
   29.4580    7.7230  -11.4210 N   0  0  0  0  0  0  0  0  0  0  0  0
   26.5520    7.2090   -9.4840 N   0  0  0  0  0  0  0  0  0  0  0  0
   29.3810    9.0540  -11.8190 C   0  0  0  0  0  0  0  0  0  0  0  0
   28.2980    9.8300  -11.4250 C   0  0  0  0  0  0  0  0  0  0  0  0
   27.2960    9.2800  -10.6370 C   0  0  0  0  0  0  0  0  0  0  0  0
   30.2100    9.7990  -12.5660 N   0  0  0  0  0  0  0  0  0  0  0  0
   29.7350   10.9960  -12.6780 C   0  0  0  0  0  0  0  0  0  0  0  0
   28.5570   10.9750  -11.9410 C   0  0  0  0  0  0  0  0  0  0  0  0
   25.9890    7.6740   -8.2580 C   0  0  0  0  0  0  0  0  0  0  0  0
   25.3190    6.7610   -7.4500 N   0  0  0  0  0  0  0  0  0  0  0  0
   24.6540    7.1990   -6.3100 C   0  0  0  0  0  0  0  0  0  0  0  0
   24.6610    8.5490   -5.9790 C   0  0  0  0  0  0  0  0  0  0  0  0
   25.3310    9.4620   -6.7880 C   0  0  0  0  0  0  0  0  0  0  0  0
   26.0180    9.0160   -7.9110 C   0  0  0  0  0  0  0  0  0  0  0  0
   24.0570    6.3820   -5.5870 O   0  0  0  0  0  0  0  0  0  0  0  0
   30.1280   12.1630  -13.3250 C   0  0  0  0  0  0  0  0  0  0  0  0
   29.3450   13.3060  -13.2340 C   0  0  0  0  0  0  0  0  0  0  0  0
   28.1670   13.2860  -12.4960 N   0  0  0  0  0  0  0  0  0  0  0  0
   27.7410   12.1350  -11.8630 C   0  0  0  0  0  0  0  0  0  0  0  0
   26.5310   12.3560  -11.2410 O   0  0  0  0  0  0  0  0  0  0  0  0
   26.7310   13.0920  -10.0830 C   0  0  1  0  0  0  0  0  0  0  0  0
   28.5205    6.1187  -10.3179 H   0  0  0  0  0  0  0  0  0  0  0  0
   30.2595    7.1454  -11.7123 H   0  0  0  0  0  0  0  0  0  0  0  0
   26.3127    6.2596   -9.8037 H   0  0  0  0  0  0  0  0  0  0  0  0
   26.4390    9.8956  -10.3262 H   0  0  0  0  0  0  0  0  0  0  0  0
   25.3155    5.7608   -7.6961 H   0  0  0  0  0  0  0  0  0  0  0  0
   24.1364    8.8961   -5.0766 H   0  0  0  0  0  0  0  0  0  0  0  0
   25.3169   10.5335   -6.5394 H   0  0  0  0  0  0  0  0  0  0  0  0
   26.5861    9.7295   -8.5259 H   0  0  0  0  0  0  0  0  0  0  0  0
   31.0599   12.1803  -13.9092 H   0  0  0  0  0  0  0  0  0  0  0  0
   29.6570   14.2281  -13.7462 H   0  0  0  0  0  0  0  0  0  0  0  0
   26.5568   12.4508   -9.2063 H   0  0  0  0  0  0  0  0  0  0  0  0
   27.7642   13.4690  -10.0620 H   0  0  0  0  0  0  0  0  0  0  0  0
   26.0307   13.9400  -10.0620 H   0  0  0  0  0  0  0  0  0  0  0  0
  1  7  1  0
  1  2  2  0
  1  4  1  0
  2  3  1  0
  3  5  1  0
  5  8  2  0
  5  6  1  0
  6 10  1  0
  6  7  2  0
  8  9  1  0
  9 18  1  0
  9 10  2  0
 10 21  1  0
 18 19  2  0
 19 20  1  0
 20 21  2  0
 21 22  1  0
  4 11  1  0
 11 16  2  0
 11 12  1  0
 12 13  1  0
 13 14  1  0
 13 17  2  0
 14 15  2  0
 15 16  1  0
 22 23  1  0
  2 24  1  0
  3 25  1  0
  4 26  1  0
  7 27  1  0
 12 28  1  0
 14 29  1  0
 15 30  1  0
 16 31  1  0
 18 32  1  0
 19 33  1  0
 23 34  1  1
 23 35  1  0
 23 36  1  0
M  END
>  <Pose ID>  (140)
108

>  <Score>  (140)
-6.782058238983154

>  <smiles>  (140)
COc1nccc2nc3[nH]cc(Nc4cccc(=O)[nH]4)cc-3c12

$$$$

     RDKit          3D

 35 38  0  0  0  0  0  0  0  0999 V2000
   27.1260    8.3670   -9.8630 C   0  0  0  0  0  0  0  0  0  0  0  0
   27.6900    7.2520  -10.4700 C   0  0  0  0  0  0  0  0  0  0  0  0
   28.7010    7.4090  -11.4110 N   0  0  0  0  0  0  0  0  0  0  0  0
   29.1500    8.6810  -11.7450 C   0  0  0  0  0  0  0  0  0  0  0  0
   26.0860    8.0320   -8.8960 O   0  0  0  0  0  0  0  0  0  0  0  0
   28.5820    9.7980  -11.1360 C   0  0  0  0  0  0  0  0  0  0  0  0
   27.5730    9.6390  -10.1950 C   0  0  0  0  0  0  0  0  0  0  0  0
   30.1000    9.0850  -12.6100 N   0  0  0  0  0  0  0  0  0  0  0  0
   30.1660   10.4600  -12.5850 C   0  0  0  0  0  0  0  0  0  0  0  0
   29.1640   10.7470  -11.6320 C   0  0  0  0  0  0  0  0  0  0  0  0
   25.5750    8.9290   -7.9500 C   0  0  0  0  0  0  0  0  0  0  0  0
   25.2560   10.2010   -8.3950 N   0  0  0  0  0  0  0  0  0  0  0  0
   24.8020   10.9300   -7.3120 N   0  0  0  0  0  0  0  0  0  0  0  0
   24.8240   10.1380   -6.2300 C   0  0  0  0  0  0  0  0  0  0  0  0
   25.2690    8.9340   -6.6010 C   0  0  0  0  0  0  0  0  0  0  0  0
   24.4020   12.2020   -7.3510 C   0  0  0  0  0  0  0  0  0  0  0  0
   24.4080   12.9530   -8.5200 C   0  0  0  0  0  0  0  0  0  0  0  0
   23.6840   12.6430   -6.2460 N   0  0  0  0  0  0  0  0  0  0  0  0
   23.6960   14.1450   -8.5850 C   0  0  0  0  0  0  0  0  0  0  0  0
   22.9720   13.8350   -6.3100 C   0  0  0  0  0  0  0  0  0  0  0  0
   22.9520   14.5840   -7.4890 C   0  0  0  0  0  0  0  0  0  0  0  0
   28.8290   12.1670  -11.2450 C   0  0  1  0  0  0  0  0  0  0  0  0
   27.3364    6.2444  -10.2059 H   0  0  0  0  0  0  0  0  0  0  0  0
   29.1178    6.5816  -11.8612 H   0  0  0  0  0  0  0  0  0  0  0  0
   27.1276   10.5214   -9.7123 H   0  0  0  0  0  0  0  0  0  0  0  0
   30.8171   11.1438  -13.1494 H   0  0  0  0  0  0  0  0  0  0  0  0
   24.5267   10.4295   -5.2118 H   0  0  0  0  0  0  0  0  0  0  0  0
   25.3767    8.0697   -5.9292 H   0  0  0  0  0  0  0  0  0  0  0  0
   24.9766   12.6040   -9.3946 H   0  0  0  0  0  0  0  0  0  0  0  0
   23.7191   14.7460   -9.5060 H   0  0  0  0  0  0  0  0  0  0  0  0
   22.4209   14.1907   -5.4269 H   0  0  0  0  0  0  0  0  0  0  0  0
   22.3577   15.5075   -7.5526 H   0  0  0  0  0  0  0  0  0  0  0  0
   28.8087   12.2531  -10.1486 H   0  0  0  0  0  0  0  0  0  0  0  0
   29.5912   12.8476  -11.6522 H   0  0  0  0  0  0  0  0  0  0  0  0
   27.8429   12.4351  -11.6522 H   0  0  0  0  0  0  0  0  0  0  0  0
  5  1  1  0
  5 11  1  0
  1  2  2  0
  1  7  1  0
  2  3  1  0
  3  4  1  0
  4  8  2  0
  4  6  1  0
  6 10  1  0
  6  7  2  0
  8  9  1  0
  9 10  2  0
 10 22  1  0
 11 12  2  0
 11 15  1  0
 12 13  1  0
 13 16  1  0
 13 14  1  0
 14 15  2  0
 16 17  2  0
 16 18  1  0
 17 19  1  0
 18 20  2  0
 19 21  2  0
 20 21  1  0
  2 23  1  0
  3 24  1  0
  7 25  1  0
  9 26  1  0
 14 27  1  0
 15 28  1  0
 17 29  1  0
 19 30  1  0
 20 31  1  0
 21 32  1  0
 22 33  1  1
 22 34  1  0
 22 35  1  0
M  END
>  <Pose ID>  (141)
441

>  <Score>  (141)
-6.780984401702881

>  <smiles>  (141)
Cc1cnc2[nH]cc(Oc3ccn(-c4ccccn4)n3)cc1-2

$$$$

     RDKit          3D

 38 41  0  0  0  0  0  0  0  0999 V2000
   27.2910    7.8680  -10.2020 C   0  0  0  0  0  0  0  0  0  0  0  0
   28.4200    7.1360  -10.5340 C   0  0  0  0  0  0  0  0  0  0  0  0
   29.4040    7.7030  -11.3350 N   0  0  0  0  0  0  0  0  0  0  0  0
   26.4940    7.1220   -9.4210 N   0  0  0  0  0  0  0  0  0  0  0  0
   29.2600    9.0050  -11.7990 C   0  0  0  0  0  0  0  0  0  0  0  0
   28.1280    9.7380  -11.4650 C   0  0  0  0  0  0  0  0  0  0  0  0
   27.1440    9.1730  -10.6670 C   0  0  0  0  0  0  0  0  0  0  0  0
   30.0620    9.7570  -12.5700 N   0  0  0  0  0  0  0  0  0  0  0  0
   29.4830   10.9500  -12.7410 C   0  0  0  0  0  0  0  0  0  0  0  0
   28.2680   10.9300  -12.0660 C   0  0  0  0  0  0  0  0  0  0  0  0
   25.8820    7.6170   -8.2300 C   0  0  0  0  0  0  0  0  0  0  0  0
   25.2480    6.7110   -7.3870 N   0  0  0  0  0  0  0  0  0  0  0  0
   24.5380    7.1660   -6.2830 C   0  0  0  0  0  0  0  0  0  0  0  0
   24.4630    8.5310   -6.0200 C   0  0  0  0  0  0  0  0  0  0  0  0
   25.0970    9.4380   -6.8640 C   0  0  0  0  0  0  0  0  0  0  0  0
   25.8300    8.9760   -7.9520 C   0  0  0  0  0  0  0  0  0  0  0  0
   23.9730    6.3550   -5.5290 O   0  0  0  0  0  0  0  0  0  0  0  0
   29.8700   12.0870  -13.4410 C   0  0  0  0  0  0  0  0  0  0  0  0
   29.0420   13.2040  -13.4660 N   0  0  0  0  0  0  0  0  0  0  0  0
   27.8280   13.1830  -12.7910 C   0  0  0  0  0  0  0  0  0  0  0  0
   27.4400   12.0470  -12.0910 C   0  0  0  0  0  0  0  0  0  0  0  0
   24.9890   10.9190   -6.5990 C   0  0  1  0  0  0  0  0  0  0  0  0
   23.6950    9.0270   -4.8200 C   0  0  1  0  0  0  0  0  0  0  0  0
   28.5372    6.1068  -10.1637 H   0  0  0  0  0  0  0  0  0  0  0  0
   30.2411    7.1575  -11.5851 H   0  0  0  0  0  0  0  0  0  0  0  0
   26.3153    6.1451   -9.6942 H   0  0  0  0  0  0  0  0  0  0  0  0
   26.2488    9.7546  -10.4017 H   0  0  0  0  0  0  0  0  0  0  0  0
   25.3049    5.7011   -7.5814 H   0  0  0  0  0  0  0  0  0  0  0  0
   26.3694    9.6887   -8.5932 H   0  0  0  0  0  0  0  0  0  0  0  0
   30.8314   12.1031  -13.9753 H   0  0  0  0  0  0  0  0  0  0  0  0
   27.1731   14.0666  -12.8106 H   0  0  0  0  0  0  0  0  0  0  0  0
   26.4785   12.0313  -11.5570 H   0  0  0  0  0  0  0  0  0  0  0  0
   24.9760   11.0973   -5.5136 H   0  0  0  0  0  0  0  0  0  0  0  0
   25.8519   11.4352   -7.0451 H   0  0  0  0  0  0  0  0  0  0  0  0
   24.0604   11.3045   -7.0451 H   0  0  0  0  0  0  0  0  0  0  0  0
   24.2013    8.7000   -3.8998 H   0  0  0  0  0  0  0  0  0  0  0  0
   23.6491   10.1258   -4.8426 H   0  0  0  0  0  0  0  0  0  0  0  0
   22.6746    8.6169   -4.8426 H   0  0  0  0  0  0  0  0  0  0  0  0
  1  7  1  0
  1  2  2  0
  1  4  1  0
  2  3  1  0
  3  5  1  0
  5  8  2  0
  5  6  1  0
  6 10  1  0
  6  7  2  0
  8  9  1  0
  9 18  1  0
  9 10  2  0
 10 21  1  0
 18 19  2  0
 19 20  1  0
 20 21  2  0
  4 11  1  0
 11 16  2  0
 11 12  1  0
 12 13  1  0
 13 14  1  0
 13 17  2  0
 14 15  2  0
 14 23  1  0
 15 16  1  0
 15 22  1  0
  2 24  1  0
  3 25  1  0
  4 26  1  0
  7 27  1  0
 12 28  1  0
 16 29  1  0
 18 30  1  0
 20 31  1  0
 21 32  1  0
 22 33  1  1
 22 34  1  0
 22 35  1  0
 23 36  1  1
 23 37  1  0
 23 38  1  0
M  END
>  <Pose ID>  (142)
119

>  <Score>  (142)
-6.774860858917236

>  <smiles>  (142)
Cc1cc(Nc2c[nH]c3nc4cnccc4c-3c2)[nH]c(=O)c1C

$$$$

     RDKit          3D

 31 34  0  0  0  0  0  0  0  0999 V2000
   27.1930    8.2650   -9.5750 C   0  0  0  0  0  0  0  0  0  0  0  0
   27.1310    7.0780   -8.8530 N   0  0  0  0  0  0  0  0  0  0  0  0
   26.2420    6.9550   -7.7940 C   0  0  0  0  0  0  0  0  0  0  0  0
   25.4140    8.0200   -7.4550 C   0  0  0  0  0  0  0  0  0  0  0  0
   25.4740    9.2050   -8.1770 N   0  0  0  0  0  0  0  0  0  0  0  0
   26.3650    9.3290   -9.2370 C   0  0  0  0  0  0  0  0  0  0  0  0
   24.4680    8.0730   -6.4370 C   0  0  0  0  0  0  0  0  0  0  0  0
   24.2090    6.9760   -5.6220 C   0  0  0  0  0  0  0  0  0  0  0  0
   23.7520    9.2500   -6.2600 C   0  0  0  0  0  0  0  0  0  0  0  0
   23.2350    7.0560   -4.6360 N   0  0  0  0  0  0  0  0  0  0  0  0
   22.5190    8.2350   -4.4610 C   0  0  0  0  0  0  0  0  0  0  0  0
   24.3640   10.0780   -7.4140 N   0  0  0  0  0  0  0  0  0  0  0  0
   22.7770    9.3320   -5.2730 C   0  0  0  0  0  0  0  0  0  0  0  0
   28.0930    8.3880  -10.6490 C   0  0  0  0  0  0  0  0  0  0  0  0
   29.1320    9.3120  -10.6550 O   0  0  0  0  0  0  0  0  0  0  0  0
   29.7100    9.1030  -11.8590 C   0  0  0  0  0  0  0  0  0  0  0  0
   29.0880    8.1150  -12.5640 N   0  0  0  0  0  0  0  0  0  0  0  0
   28.0590    7.6400  -11.8090 C   0  0  0  0  0  0  0  0  0  0  0  0
   21.9990   10.6120   -5.0830 C   0  0  1  0  0  0  0  0  0  0  0  0
   22.8390   11.8730   -4.9300 C   0  0  1  0  0  0  0  0  0  0  0  0
   26.1924    6.0159   -7.2233 H   0  0  0  0  0  0  0  0  0  0  0  0
   26.4146   10.2681   -9.8076 H   0  0  0  0  0  0  0  0  0  0  0  0
   24.7767    6.0438   -5.7589 H   0  0  0  0  0  0  0  0  0  0  0  0
   21.7479    8.2990   -3.6791 H   0  0  0  0  0  0  0  0  0  0  0  0
   30.5811    9.6647  -12.2274 H   0  0  0  0  0  0  0  0  0  0  0  0
   27.3544    6.8357  -12.0671 H   0  0  0  0  0  0  0  0  0  0  0  0
   21.3453   10.7443   -5.9577 H   0  0  0  0  0  0  0  0  0  0  0  0
   21.4531   10.4958   -4.1351 H   0  0  0  0  0  0  0  0  0  0  0  0
   22.9835   12.0899   -3.8613 H   0  0  0  0  0  0  0  0  0  0  0  0
   23.8176   11.7220   -5.4091 H   0  0  0  0  0  0  0  0  0  0  0  0
   22.3226   12.7179   -5.4091 H   0  0  0  0  0  0  0  0  0  0  0  0
  1 14  1  0
  1  6  2  0
  1  2  1  0
  2  3  2  0
  3  4  1  0
  4  5  1  0
  4  7  2  0
  5  6  1  0
  5 12  1  0
  7  9  1  0
  7  8  1  0
  8 10  2  0
  9 12  2  0
  9 13  1  0
 10 11  1  0
 11 13  2  0
 13 19  1  0
 14 18  2  0
 14 15  1  0
 15 16  1  0
 16 17  2  0
 17 18  1  0
 19 20  1  0
  3 21  1  0
  6 22  1  0
  8 23  1  0
 11 24  1  0
 16 25  1  0
 18 26  1  0
 19 27  1  6
 19 28  1  0
 20 29  1  1
 20 30  1  0
 20 31  1  0
M  END
>  <Pose ID>  (143)
80

>  <Score>  (143)
-6.772427558898926

>  <smiles>  (143)
CCc1cncc2c1nn1cc(-c3cnco3)ncc21

$$$$

     RDKit          3D

 35 38  0  0  0  0  0  0  0  0999 V2000
   26.4170    6.5960   -8.5090 C   0  0  0  0  0  0  0  0  0  0  0  0
   27.3630    7.1500   -9.3620 N   0  0  0  0  0  0  0  0  0  0  0  0
   25.4690    7.4120   -7.9010 N   0  0  0  0  0  0  0  0  0  0  0  0
   25.4560    8.7160   -8.1530 C   0  0  0  0  0  0  0  0  0  0  0  0
   26.3260    9.4750   -8.9280 C   0  0  0  0  0  0  0  0  0  0  0  0
   27.3580    8.5160   -9.6130 C   0  0  0  0  0  0  0  0  0  0  0  0
   24.4380    9.3360   -7.4400 N   0  0  0  0  0  0  0  0  0  0  0  0
   24.2880   10.7150   -7.5010 C   0  0  0  0  0  0  0  0  0  0  0  0
   25.1540   11.4760   -8.2770 N   0  0  0  0  0  0  0  0  0  0  0  0
   26.1760   10.8690   -8.9890 C   0  0  0  0  0  0  0  0  0  0  0  0
   27.0560   11.6370   -9.8120 C   0  0  0  0  0  0  0  0  0  0  0  0
   27.0680   11.2490  -11.1480 C   0  0  0  0  0  0  0  0  0  0  0  0
   27.9740   12.5720   -9.3510 C   0  0  0  0  0  0  0  0  0  0  0  0
   28.8320   13.0740  -10.2050 C   0  0  0  0  0  0  0  0  0  0  0  0
   28.9040   12.7260  -11.5470 C   0  0  0  0  0  0  0  0  0  0  0  0
   28.0030   11.7980  -12.0190 C   0  0  0  0  0  0  0  0  0  0  0  0
   29.8830   13.2870  -12.3590 C   0  0  0  0  0  0  0  0  0  0  0  0
   29.7390   13.9840   -9.6720 C   0  0  0  0  0  0  0  0  0  0  0  0
   30.7170   14.5450  -10.4830 C   0  0  0  0  0  0  0  0  0  0  0  0
   30.7880   14.1980  -11.8270 N   0  0  0  0  0  0  0  0  0  0  0  0
   30.2840   13.2480  -13.5850 C   0  0  1  0  0  0  0  0  0  0  0  0
   23.1840   11.3880   -6.7240 C   0  0  1  0  0  0  0  0  0  0  0  0
   26.4177    5.5133   -8.3146 H   0  0  0  0  0  0  0  0  0  0  0  0
   28.0978    8.9353  -10.3108 H   0  0  0  0  0  0  0  0  0  0  0  0
   26.3401   10.5101  -11.5144 H   0  0  0  0  0  0  0  0  0  0  0  0
   27.9806   12.8832   -8.2959 H   0  0  0  0  0  0  0  0  0  0  0  0
   28.0225   11.4935  -13.0758 H   0  0  0  0  0  0  0  0  0  0  0  0
   29.6817   14.2592   -8.6085 H   0  0  0  0  0  0  0  0  0  0  0  0
   31.4352   15.2638  -10.0617 H   0  0  0  0  0  0  0  0  0  0  0  0
   31.3786   13.1415  -13.6096 H   0  0  0  0  0  0  0  0  0  0  0  0
   29.8207   12.3907  -14.0952 H   0  0  0  0  0  0  0  0  0  0  0  0
   29.9946   14.1785  -14.0952 H   0  0  0  0  0  0  0  0  0  0  0  0
   23.3718   11.2735   -5.6462 H   0  0  0  0  0  0  0  0  0  0  0  0
   23.1551   12.4575   -6.9796 H   0  0  0  0  0  0  0  0  0  0  0  0
   22.2201   10.9237   -6.9796 H   0  0  0  0  0  0  0  0  0  0  0  0
  1  2  2  0
  1  3  1  0
  2  6  1  0
  3  4  2  0
  4  5  1  0
  4  7  1  0
  5  6  2  0
  5 10  1  0
  7  8  2  0
  8  9  1  0
  8 22  1  0
  9 10  2  0
 10 11  1  0
 11 12  2  0
 11 13  1  0
 12 16  1  0
 13 14  2  0
 14 15  1  0
 14 18  1  0
 15 17  1  0
 15 16  2  0
 17 21  1  0
 17 20  2  0
 18 19  2  0
 19 20  1  0
  1 23  1  0
  6 24  1  0
 12 25  1  0
 13 26  1  0
 16 27  1  0
 18 28  1  0
 19 29  1  0
 21 30  1  1
 21 31  1  0
 21 32  1  0
 22 33  1  1
 22 34  1  0
 22 35  1  0
M  END
>  <Pose ID>  (144)
38

>  <Score>  (144)
-6.7711358070373535

>  <smiles>  (144)
Cc1nc(-c2ccc3c(C)nccc3c2)c2cncnc2n1

$$$$

     RDKit          3D

 35 38  0  0  0  0  0  0  0  0999 V2000
   27.1270    8.3180   -9.8980 C   0  0  0  0  0  0  0  0  0  0  0  0
   27.6910    7.2030  -10.5040 C   0  0  0  0  0  0  0  0  0  0  0  0
   28.7090    7.3590  -11.4370 N   0  0  0  0  0  0  0  0  0  0  0  0
   29.1660    8.6300  -11.7640 C   0  0  0  0  0  0  0  0  0  0  0  0
   26.0790    7.9850   -8.9380 O   0  0  0  0  0  0  0  0  0  0  0  0
   28.5980    9.7480  -11.1560 C   0  0  0  0  0  0  0  0  0  0  0  0
   27.5820    9.5900  -10.2220 C   0  0  0  0  0  0  0  0  0  0  0  0
   30.1240    9.0340  -12.6210 N   0  0  0  0  0  0  0  0  0  0  0  0
   30.1950   10.4080  -12.5920 C   0  0  0  0  0  0  0  0  0  0  0  0
   29.1870   10.6970  -11.6450 C   0  0  0  0  0  0  0  0  0  0  0  0
   25.5650    8.8800   -7.9930 C   0  0  0  0  0  0  0  0  0  0  0  0
   25.2540   10.1550   -8.4370 N   0  0  0  0  0  0  0  0  0  0  0  0
   24.7960   10.8830   -7.3540 N   0  0  0  0  0  0  0  0  0  0  0  0
   24.8080   10.0870   -6.2740 C   0  0  0  0  0  0  0  0  0  0  0  0
   25.2500    8.8830   -6.6460 C   0  0  0  0  0  0  0  0  0  0  0  0
   24.4010   12.1560   -7.3930 C   0  0  0  0  0  0  0  0  0  0  0  0
   24.4180   12.9110   -8.5590 C   0  0  0  0  0  0  0  0  0  0  0  0
   23.6770   12.5960   -6.2910 N   0  0  0  0  0  0  0  0  0  0  0  0
   23.7110   14.1060   -8.6250 C   0  0  0  0  0  0  0  0  0  0  0  0
   22.9700   13.7910   -6.3560 C   0  0  0  0  0  0  0  0  0  0  0  0
   22.9610   14.5440   -7.5330 C   0  0  0  0  0  0  0  0  0  0  0  0
   24.3920   10.4850   -4.8790 C   0  0  1  0  0  0  0  0  0  0  0  0
   27.3318    6.1960  -10.2454 H   0  0  0  0  0  0  0  0  0  0  0  0
   29.1255    6.5313  -11.8869 H   0  0  0  0  0  0  0  0  0  0  0  0
   27.1375   10.4725   -9.7387 H   0  0  0  0  0  0  0  0  0  0  0  0
   30.8527   11.0906  -13.1501 H   0  0  0  0  0  0  0  0  0  0  0  0
   28.9445   11.7318  -11.3616 H   0  0  0  0  0  0  0  0  0  0  0  0
   25.3495    8.0162   -5.9761 H   0  0  0  0  0  0  0  0  0  0  0  0
   24.9914   12.5629   -9.4308 H   0  0  0  0  0  0  0  0  0  0  0  0
   23.7430   14.7100   -9.5438 H   0  0  0  0  0  0  0  0  0  0  0  0
   22.4143   14.1460   -5.4756 H   0  0  0  0  0  0  0  0  0  0  0  0
   22.3705   15.4698   -7.5978 H   0  0  0  0  0  0  0  0  0  0  0  0
   24.9836    9.9190   -4.1444 H   0  0  0  0  0  0  0  0  0  0  0  0
   24.5655   11.5620   -4.7379 H   0  0  0  0  0  0  0  0  0  0  0  0
   23.3237   10.2641   -4.7379 H   0  0  0  0  0  0  0  0  0  0  0  0
 11  5  1  0
 11 12  2  0
 11 15  1  0
 12 13  1  0
 13 16  1  0
 13 14  1  0
 14 15  2  0
 14 22  1  0
 16 17  2  0
 16 18  1  0
 17 19  1  0
 18 20  2  0
 19 21  2  0
 20 21  1  0
  5  1  1  0
  1  2  2  0
  1  7  1  0
  2  3  1  0
  3  4  1  0
  4  8  2  0
  4  6  1  0
  6 10  1  0
  6  7  2  0
  8  9  1  0
  9 10  2  0
  2 23  1  0
  3 24  1  0
  7 25  1  0
  9 26  1  0
 10 27  1  0
 15 28  1  0
 17 29  1  0
 19 30  1  0
 20 31  1  0
 21 32  1  0
 22 33  1  1
 22 34  1  0
 22 35  1  0
M  END
>  <Pose ID>  (145)
439

>  <Score>  (145)
-6.769546985626221

>  <smiles>  (145)
Cc1cc(Oc2c[nH]c3nccc-3c2)nn1-c1ccccn1

$$$$

     RDKit          3D

 38 41  0  0  0  0  0  0  0  0999 V2000
   26.8410    8.8060  -10.4280 C   0  0  0  0  0  0  0  0  0  0  0  0
   27.5840    7.6360  -10.3020 C   0  0  0  0  0  0  0  0  0  0  0  0
   28.8320    7.5390  -10.9050 N   0  0  0  0  0  0  0  0  0  0  0  0
   25.6020    9.2260   -9.9620 N   0  0  0  0  0  0  0  0  0  0  0  0
   29.3380    8.6060  -11.6370 C   0  0  0  0  0  0  0  0  0  0  0  0
   28.5960    9.7750  -11.7640 C   0  0  0  0  0  0  0  0  0  0  0  0
   27.3470    9.8720  -11.1600 C   0  0  0  0  0  0  0  0  0  0  0  0
   30.4990    8.7500  -12.3000 N   0  0  0  0  0  0  0  0  0  0  0  0
   30.5340   10.0000  -12.8710 C   0  0  0  0  0  0  0  0  0  0  0  0
   29.2830   10.5050  -12.4550 C   0  0  0  0  0  0  0  0  0  0  0  0
   25.2640    9.4870   -8.5440 C   0  0  0  0  0  0  0  0  0  0  0  0
   24.0460    9.8930   -8.0240 N   0  0  0  0  0  0  0  0  0  0  0  0
   23.9090   10.1370   -6.6620 C   0  0  0  0  0  0  0  0  0  0  0  0
   24.9940    9.9410   -5.8160 C   0  0  0  0  0  0  0  0  0  0  0  0
   26.2130    9.5190   -6.3330 C   0  0  0  0  0  0  0  0  0  0  0  0
   26.3470    9.2910   -7.6960 N   0  0  0  0  0  0  0  0  0  0  0  0
   27.1830    9.3460   -5.5720 O   0  0  0  0  0  0  0  0  0  0  0  0
   22.8060   10.5830   -5.9120 C   0  0  0  0  0  0  0  0  0  0  0  0
   23.2120   10.6250   -4.6010 C   0  0  0  0  0  0  0  0  0  0  0  0
   24.4660   10.2910   -4.5590 O   0  0  0  0  0  0  0  0  0  0  0  0
   22.3530   10.9930   -3.4160 C   0  0  1  0  0  0  0  0  0  0  0  0
   28.8180   11.8850  -12.8490 C   0  0  1  0  0  0  0  0  0  0  0  0
   27.4240   11.9580  -13.4770 C   0  0  1  0  0  0  0  0  0  0  0  0
   27.1837    6.7889   -9.7256 H   0  0  0  0  0  0  0  0  0  0  0  0
   29.3832    6.6742  -10.8091 H   0  0  0  0  0  0  0  0  0  0  0  0
   24.8574    9.3675  -10.6595 H   0  0  0  0  0  0  0  0  0  0  0  0
   26.7584   10.7956  -11.2624 H   0  0  0  0  0  0  0  0  0  0  0  0
   31.3172   10.4739  -13.4810 H   0  0  0  0  0  0  0  0  0  0  0  0
   27.2500    8.9763   -8.0788 H   0  0  0  0  0  0  0  0  0  0  0  0
   21.8112   10.8469   -6.3003 H   0  0  0  0  0  0  0  0  0  0  0  0
   22.8928   10.7617   -2.4859 H   0  0  0  0  0  0  0  0  0  0  0  0
   22.1237   12.0683   -3.4492 H   0  0  0  0  0  0  0  0  0  0  0  0
   21.4163   10.4172   -3.4492 H   0  0  0  0  0  0  0  0  0  0  0  0
   28.8156   12.5123  -11.9454 H   0  0  0  0  0  0  0  0  0  0  0  0
   29.5169   12.2280  -13.6261 H   0  0  0  0  0  0  0  0  0  0  0  0
   26.6652   11.9977  -12.6816 H   0  0  0  0  0  0  0  0  0  0  0  0
   27.3495   12.8613  -14.1003 H   0  0  0  0  0  0  0  0  0  0  0  0
   27.2556   11.0674  -14.1003 H   0  0  0  0  0  0  0  0  0  0  0  0
  4  1  1  0
  4 11  1  0
 11 12  2  0
 11 16  1  0
 12 13  1  0
 13 18  1  0
 13 14  2  0
 14 15  1  0
 14 20  1  0
 15 16  1  0
 15 17  2  0
 18 19  2  0
 19 20  1  0
 19 21  1  0
  1  7  1  0
  1  2  2  0
  2  3  1  0
  3  5  1  0
  5  8  2  0
  5  6  1  0
  6 10  1  0
  6  7  2  0
  8  9  1  0
  9 10  2  0
 10 22  1  0
 22 23  1  0
  2 24  1  0
  3 25  1  0
  4 26  1  0
  7 27  1  0
  9 28  1  0
 16 29  1  0
 18 30  1  0
 21 31  1  1
 21 32  1  0
 21 33  1  0
 22 34  1  1
 22 35  1  0
 23 36  1  1
 23 37  1  0
 23 38  1  0
M  END
>  <Pose ID>  (146)
25

>  <Score>  (146)
-6.759907245635986

>  <smiles>  (146)
CCc1cnc2[nH]cc(Nc3nc4cc(C)oc4c(=O)[nH]3)cc1-2

$$$$

     RDKit          3D

 40 42  0  0  0  0  0  0  0  0999 V2000
   27.6140    9.8230  -10.9710 C   0  0  0  0  0  0  0  0  0  0  0  0
   28.2780    8.6230  -10.7380 C   0  0  0  0  0  0  0  0  0  0  0  0
   27.8760    7.7360   -9.7510 N   0  0  0  0  0  0  0  0  0  0  0  0
   26.7450    8.0290   -8.9990 C   0  0  0  0  0  0  0  0  0  0  0  0
   26.0380    9.2010   -9.2360 C   0  0  0  0  0  0  0  0  0  0  0  0
   26.4480   10.0630  -10.2330 C   0  0  0  0  0  0  0  0  0  0  0  0
   26.3670    7.2430   -8.1160 O   0  0  0  0  0  0  0  0  0  0  0  0
   29.4130    8.3040  -11.4760 N   0  0  0  0  0  0  0  0  0  0  0  0
   29.8780    9.1790  -12.4490 C   0  0  0  0  0  0  0  0  0  0  0  0
   29.2130   10.3770  -12.6840 C   0  0  0  0  0  0  0  0  0  0  0  0
   28.0780   10.6980  -11.9320 C   0  0  0  0  0  0  0  0  0  0  0  0
   24.9190    9.7170   -8.6280 N   0  0  0  0  0  0  0  0  0  0  0  0
   24.8910   10.0340   -7.1690 C   0  0  0  0  0  0  0  0  0  0  0  0
   24.2160    9.1570   -6.3290 C   0  0  0  0  0  0  0  0  0  0  0  0
   24.1550    9.4130   -4.9630 C   0  0  0  0  0  0  0  0  0  0  0  0
   24.7700   10.5440   -4.4400 C   0  0  0  0  0  0  0  0  0  0  0  0
   25.4450   11.4180   -5.2800 C   0  0  0  0  0  0  0  0  0  0  0  0
   25.5060   11.1650   -6.6450 N   0  0  0  0  0  0  0  0  0  0  0  0
   27.4250   11.8800  -12.1480 N   0  0  0  0  0  0  0  0  0  0  0  0
   26.8580   12.1740  -13.4710 C   0  0  1  0  0  0  0  0  0  0  0  0
   27.6160   13.0200  -11.1950 C   0  0  1  0  0  0  0  0  0  0  0  0
   23.6980    8.1240   -7.0770 O   0  0  0  0  0  0  0  0  0  0  0  0
   23.1110    6.9690   -6.3200 C   0  0  1  0  0  0  0  0  0  0  0  0
   28.4086    6.8716   -9.5776 H   0  0  0  0  0  0  0  0  0  0  0  0
   25.8463   10.9573  -10.4526 H   0  0  0  0  0  0  0  0  0  0  0  0
   30.7736    8.9238  -13.0345 H   0  0  0  0  0  0  0  0  0  0  0  0
   29.5775   11.0690  -13.4574 H   0  0  0  0  0  0  0  0  0  0  0  0
   24.0762    9.8899   -9.1943 H   0  0  0  0  0  0  0  0  0  0  0  0
   23.6200    8.7201   -4.2969 H   0  0  0  0  0  0  0  0  0  0  0  0
   24.7217   10.7464   -3.3599 H   0  0  0  0  0  0  0  0  0  0  0  0
   25.9325   12.3124   -4.8649 H   0  0  0  0  0  0  0  0  0  0  0  0
   25.8874   12.6773  -13.3503 H   0  0  0  0  0  0  0  0  0  0  0  0
   27.5445   12.8298  -14.0266 H   0  0  0  0  0  0  0  0  0  0  0  0
   26.7176   11.2351  -14.0266 H   0  0  0  0  0  0  0  0  0  0  0  0
   27.5537   12.6484  -10.1616 H   0  0  0  0  0  0  0  0  0  0  0  0
   28.6031   13.4759  -11.3618 H   0  0  0  0  0  0  0  0  0  0  0  0
   26.8315   13.7728  -11.3618 H   0  0  0  0  0  0  0  0  0  0  0  0
   23.2046    7.1532   -5.2396 H   0  0  0  0  0  0  0  0  0  0  0  0
   22.0484    6.8605   -6.5827 H   0  0  0  0  0  0  0  0  0  0  0  0
   23.6497    6.0466   -6.5827 H   0  0  0  0  0  0  0  0  0  0  0  0
  1 11  1  0
  1  2  2  0
  1  6  1  0
  2  8  1  0
  2  3  1  0
  3  4  1  0
  4  5  1  0
  4  7  2  0
  5  6  2  0
  5 12  1  0
  8  9  2  0
  9 10  1  0
 10 11  2  0
 11 19  1  0
 19 20  1  0
 19 21  1  0
 12 13  1  0
 13 18  1  0
 13 14  2  0
 14 22  1  0
 14 15  1  0
 15 16  2  0
 16 17  1  0
 17 18  2  0
 22 23  1  0
  3 24  1  0
  6 25  1  0
  9 26  1  0
 10 27  1  0
 12 28  1  0
 15 29  1  0
 16 30  1  0
 17 31  1  0
 20 32  1  1
 20 33  1  0
 20 34  1  0
 21 35  1  1
 21 36  1  0
 21 37  1  0
 23 38  1  1
 23 39  1  0
 23 40  1  0
M  END
>  <Pose ID>  (147)
163

>  <Score>  (147)
-6.748032093048096

>  <smiles>  (147)
COc1cccnc1Nc1cc2c(N(C)C)ccnc2[nH]c1=O

$$$$

     RDKit          3D

 35 38  0  0  0  0  0  0  0  0999 V2000
   26.2690    6.6700   -8.2140 C   0  0  0  0  0  0  0  0  0  0  0  0
   27.3030    7.1500   -9.0070 N   0  0  0  0  0  0  0  0  0  0  0  0
   25.2190    7.5110   -7.8610 N   0  0  0  0  0  0  0  0  0  0  0  0
   25.1950    8.7640   -8.2980 C   0  0  0  0  0  0  0  0  0  0  0  0
   26.1370    9.4540   -9.0550 C   0  0  0  0  0  0  0  0  0  0  0  0
   27.2860    8.4660   -9.4520 C   0  0  0  0  0  0  0  0  0  0  0  0
   24.0680    9.4220   -7.8220 N   0  0  0  0  0  0  0  0  0  0  0  0
   23.8810   10.7690   -8.1020 C   0  0  0  0  0  0  0  0  0  0  0  0
   24.8180   11.4600   -8.8600 N   0  0  0  0  0  0  0  0  0  0  0  0
   25.9490   10.8150   -9.3360 C   0  0  0  0  0  0  0  0  0  0  0  0
   26.9060   11.5090  -10.1400 C   0  0  0  0  0  0  0  0  0  0  0  0
   27.1150   10.9400  -11.3920 C   0  0  0  0  0  0  0  0  0  0  0  0
   27.7190   12.5460   -9.7030 C   0  0  0  0  0  0  0  0  0  0  0  0
   28.6680   12.9700  -10.5010 C   0  0  0  0  0  0  0  0  0  0  0  0
   28.9360   12.4440  -11.7570 C   0  0  0  0  0  0  0  0  0  0  0  0
   28.1410   11.4110  -12.2040 C   0  0  0  0  0  0  0  0  0  0  0  0
   29.9970   12.9380  -12.5070 C   0  0  0  0  0  0  0  0  0  0  0  0
   29.4610   13.9930   -9.9910 C   0  0  0  0  0  0  0  0  0  0  0  0
   30.5220   14.4880  -10.7400 C   0  0  0  0  0  0  0  0  0  0  0  0
   30.7890   13.9610  -11.9980 N   0  0  0  0  0  0  0  0  0  0  0  0
   30.5640   12.7500  -13.6510 C   0  0  1  0  0  0  0  0  0  0  0  0
   29.1700   14.5660   -8.6260 C   0  0  1  0  0  0  0  0  0  0  0  0
   26.2804    5.6267   -7.8657 H   0  0  0  0  0  0  0  0  0  0  0  0
   28.1002    8.8233  -10.0997 H   0  0  0  0  0  0  0  0  0  0  0  0
   22.9894   11.2899   -7.7230 H   0  0  0  0  0  0  0  0  0  0  0  0
   26.4701   10.1192  -11.7390 H   0  0  0  0  0  0  0  0  0  0  0  0
   27.5704   13.0001   -8.7122 H   0  0  0  0  0  0  0  0  0  0  0  0
   28.3162   10.9634  -13.1934 H   0  0  0  0  0  0  0  0  0  0  0  0
   31.1500   15.2964  -10.3374 H   0  0  0  0  0  0  0  0  0  0  0  0
   31.5977   12.4073  -13.4960 H   0  0  0  0  0  0  0  0  0  0  0  0
   30.0061   11.9887  -14.2160 H   0  0  0  0  0  0  0  0  0  0  0  0
   30.5715   13.6938  -14.2160 H   0  0  0  0  0  0  0  0  0  0  0  0
   29.5241   13.8687   -7.8525 H   0  0  0  0  0  0  0  0  0  0  0  0
   29.6876   15.5302   -8.5151 H   0  0  0  0  0  0  0  0  0  0  0  0
   28.0860   14.7169   -8.5151 H   0  0  0  0  0  0  0  0  0  0  0  0
 11 12  2  0
 11 13  1  0
 11 10  1  0
 12 16  1  0
 13 14  2  0
 14 15  1  0
 14 18  1  0
 15 17  1  0
 15 16  2  0
 17 21  1  0
 17 20  2  0
 18 19  2  0
 18 22  1  0
 19 20  1  0
  1  2  2  0
  1  3  1  0
  2  6  1  0
  3  4  2  0
  4  5  1  0
  4  7  1  0
  5  6  2  0
  5 10  1  0
  7  8  2  0
  8  9  1  0
  9 10  2  0
  1 23  1  0
  6 24  1  0
  8 25  1  0
 12 26  1  0
 13 27  1  0
 16 28  1  0
 19 29  1  0
 21 30  1  1
 21 31  1  0
 21 32  1  0
 22 33  1  1
 22 34  1  0
 22 35  1  0
M  END
>  <Pose ID>  (148)
39

>  <Score>  (148)
-6.704366207122803

>  <smiles>  (148)
Cc1cnc(C)c2ccc(-c3ncnc4ncncc34)cc12

$$$$

     RDKit          3D

 44 47  0  0  0  0  0  0  0  0999 V2000
   27.9150    7.8750  -10.2750 C   0  0  0  0  0  0  0  0  0  0  0  0
   28.9100    7.1440  -10.9120 C   0  0  0  0  0  0  0  0  0  0  0  0
   29.7760    7.7720  -11.7960 N   0  0  0  0  0  0  0  0  0  0  0  0
   29.6480    9.1350  -12.0450 C   0  0  0  0  0  0  0  0  0  0  0  0
   27.0960    7.0720   -9.3720 O   0  0  0  0  0  0  0  0  0  0  0  0
   28.6510    9.8660  -11.4090 C   0  0  0  0  0  0  0  0  0  0  0  0
   27.7870    9.2360  -10.5230 C   0  0  0  0  0  0  0  0  0  0  0  0
   30.3540    9.9560  -12.8470 N   0  0  0  0  0  0  0  0  0  0  0  0
   29.8310   11.2260  -12.7500 C   0  0  0  0  0  0  0  0  0  0  0  0
   28.7830   11.0020  -11.8300 C   0  0  0  0  0  0  0  0  0  0  0  0
   26.2370    7.6060   -8.4060 C   0  0  0  0  0  0  0  0  0  0  0  0
   25.4160    8.6520   -8.7990 N   0  0  0  0  0  0  0  0  0  0  0  0
   24.6770    9.0490   -7.7000 N   0  0  0  0  0  0  0  0  0  0  0  0
   25.0100    8.2710   -6.6620 C   0  0  0  0  0  0  0  0  0  0  0  0
   25.9310    7.3940   -7.0720 C   0  0  0  0  0  0  0  0  0  0  0  0
   23.7270   10.1260   -7.8010 C   0  0  1  0  0  0  0  0  0  0  0  0
   30.2560   12.5010  -13.4340 C   0  0  1  0  0  0  0  0  0  0  0  0
   24.3840    8.5190   -5.4710 N   0  0  0  0  0  0  0  0  0  0  0  0
   23.3150    7.6890   -4.8950 C   0  0  1  0  0  0  0  0  0  0  0  0
   24.6910    9.7080   -4.6900 C   0  0  1  0  0  0  0  0  0  0  0  0
   23.4270    9.8320   -3.7790 C   0  0  1  0  0  0  0  0  0  0  0  0
   23.0470    8.3960   -3.4880 C   0  0  1  0  0  0  0  0  0  0  0  0
   24.2750   11.5990   -8.2200 C   0  0  1  0  0  0  0  0  0  0  0  0
   29.0115    6.0665  -10.7155 H   0  0  0  0  0  0  0  0  0  0  0  0
   30.5134    7.2292  -12.2677 H   0  0  0  0  0  0  0  0  0  0  0  0
   27.0005    9.8151  -10.0170 H   0  0  0  0  0  0  0  0  0  0  0  0
   28.1164   11.8157  -11.5082 H   0  0  0  0  0  0  0  0  0  0  0  0
   26.3819    6.6147   -6.4400 H   0  0  0  0  0  0  0  0  0  0  0  0
   22.9785    9.8311   -8.5512 H   0  0  0  0  0  0  0  0  0  0  0  0
   23.3535   10.2565   -6.7746 H   0  0  0  0  0  0  0  0  0  0  0  0
   30.5081   13.2573  -12.6760 H   0  0  0  0  0  0  0  0  0  0  0  0
   31.1370   12.3039  -14.0624 H   0  0  0  0  0  0  0  0  0  0  0  0
   29.4329   12.8719  -14.0624 H   0  0  0  0  0  0  0  0  0  0  0  0
   22.4144    7.7065   -5.5264 H   0  0  0  0  0  0  0  0  0  0  0  0
   23.5848    6.6262   -4.8069 H   0  0  0  0  0  0  0  0  0  0  0  0
   25.6033    9.5687   -4.0914 H   0  0  0  0  0  0  0  0  0  0  0  0
   24.8878   10.6017   -5.3005 H   0  0  0  0  0  0  0  0  0  0  0  0
   23.6654   10.3700   -2.8496 H   0  0  0  0  0  0  0  0  0  0  0  0
   22.6135   10.3982   -4.2562 H   0  0  0  0  0  0  0  0  0  0  0  0
   21.9900    8.3140   -3.1946 H   0  0  0  0  0  0  0  0  0  0  0  0
   23.6078    7.9495   -2.6537 H   0  0  0  0  0  0  0  0  0  0  0  0
   24.4917   12.1814   -7.3124 H   0  0  0  0  0  0  0  0  0  0  0  0
   25.1937   11.4927   -8.8155 H   0  0  0  0  0  0  0  0  0  0  0  0
   23.5102   12.1190   -8.8155 H   0  0  0  0  0  0  0  0  0  0  0  0
  5  1  1  0
  5 11  1  0
  1  2  2  0
  1  7  1  0
  2  3  1  0
  3  4  1  0
  4  8  2  0
  4  6  1  0
  6 10  1  0
  6  7  2  0
  8  9  1  0
  9 17  1  0
  9 10  2  0
 11 12  2  0
 11 15  1  0
 12 13  1  0
 13 16  1  0
 13 14  1  0
 14 15  2  0
 14 18  1  0
 18 19  1  0
 18 20  1  0
 19 22  1  0
 20 21  1  0
 21 22  1  0
 16 23  1  0
  2 24  1  0
  3 25  1  0
  7 26  1  0
 10 27  1  0
 15 28  1  0
 16 29  1  6
 16 30  1  0
 17 31  1  1
 17 32  1  0
 17 33  1  0
 19 34  1  6
 19 35  1  0
 20 36  1  1
 20 37  1  0
 21 38  1  1
 21 39  1  0
 22 40  1  1
 22 41  1  0
 23 42  1  1
 23 43  1  0
 23 44  1  0
M  END
>  <Pose ID>  (149)
486

>  <Score>  (149)
-6.7008514404296875

>  <smiles>  (149)
CCn1nc(Oc2c[nH]c3nc(C)cc-3c2)cc1N1CCCC1

$$$$

     RDKit          3D

 38 41  0  0  0  0  0  0  0  0999 V2000
   26.8960    8.4870   -9.8720 C   0  0  0  0  0  0  0  0  0  0  0  0
   27.4870    7.3480  -10.4090 C   0  0  0  0  0  0  0  0  0  0  0  0
   28.5420    7.4700  -11.3030 N   0  0  0  0  0  0  0  0  0  0  0  0
   29.0100    8.7290  -11.6620 C   0  0  0  0  0  0  0  0  0  0  0  0
   25.8080    8.1890   -8.9440 O   0  0  0  0  0  0  0  0  0  0  0  0
   28.4180    9.8670  -11.1240 C   0  0  0  0  0  0  0  0  0  0  0  0
   27.3630    9.7450  -10.2270 C   0  0  0  0  0  0  0  0  0  0  0  0
   30.0040    9.0990  -12.4940 N   0  0  0  0  0  0  0  0  0  0  0  0
   30.0730   10.4740  -12.5170 C   0  0  0  0  0  0  0  0  0  0  0  0
   29.0260   10.7970  -11.6260 C   0  0  0  0  0  0  0  0  0  0  0  0
   25.2550    9.1200   -8.0570 C   0  0  0  0  0  0  0  0  0  0  0  0
   24.9610   10.3770   -8.5660 N   0  0  0  0  0  0  0  0  0  0  0  0
   24.4580   11.1430   -7.5330 N   0  0  0  0  0  0  0  0  0  0  0  0
   24.4230   10.3940   -6.4230 C   0  0  0  0  0  0  0  0  0  0  0  0
   24.8810    9.1750   -6.7270 C   0  0  0  0  0  0  0  0  0  0  0  0
   24.0990   12.3500   -7.6460 C   0  0  0  0  0  0  0  0  0  0  0  0
   24.2700   12.8840   -8.9180 C   0  0  0  0  0  0  0  0  0  0  0  0
   23.5330   13.1200   -6.6380 N   0  0  0  0  0  0  0  0  0  0  0  0
   23.1380   14.4270   -6.9010 C   0  0  0  0  0  0  0  0  0  0  0  0
   23.8740   14.1900   -9.1800 C   0  0  0  0  0  0  0  0  0  0  0  0
   23.3100   14.9530   -8.2100 C   0  0  0  0  0  0  0  0  0  0  0  0
   24.9770    8.0230   -5.7570 C   0  0  1  0  0  0  0  0  0  0  0  0
   23.8190    7.1010   -6.0390 C   0  0  1  0  0  0  0  0  0  0  0  0
   27.1186    6.3511  -10.1254 H   0  0  0  0  0  0  0  0  0  0  0  0
   28.9788    6.6264  -11.7010 H   0  0  0  0  0  0  0  0  0  0  0  0
   26.8983   10.6453   -9.7986 H   0  0  0  0  0  0  0  0  0  0  0  0
   30.7531   11.1356  -13.0735 H   0  0  0  0  0  0  0  0  0  0  0  0
   28.7703   11.8416  -11.3951 H   0  0  0  0  0  0  0  0  0  0  0  0
   24.0772   10.7246   -5.4325 H   0  0  0  0  0  0  0  0  0  0  0  0
   24.7181   12.2737   -9.7159 H   0  0  0  0  0  0  0  0  0  0  0  0
   22.6978   15.0463   -6.1056 H   0  0  0  0  0  0  0  0  0  0  0  0
   24.0195   14.6104  -10.1860 H   0  0  0  0  0  0  0  0  0  0  0  0
   22.9857   15.9793   -8.4370 H   0  0  0  0  0  0  0  0  0  0  0  0
   25.9274    7.4882   -5.9008 H   0  0  0  0  0  0  0  0  0  0  0  0
   24.9425    8.3847   -4.7187 H   0  0  0  0  0  0  0  0  0  0  0  0
   23.3854    6.7558   -5.0889 H   0  0  0  0  0  0  0  0  0  0  0  0
   23.0537    7.6397   -6.6170 H   0  0  0  0  0  0  0  0  0  0  0  0
   24.1726    6.2345   -6.6170 H   0  0  0  0  0  0  0  0  0  0  0  0
 11  5  1  0
 11 12  2  0
 11 15  1  0
 12 13  1  0
 13 16  1  0
 13 14  1  0
 14 15  2  0
 15 22  1  0
 16 17  2  0
 16 18  1  0
 17 20  1  0
 18 19  2  0
 19 21  1  0
 20 21  2  0
 22 23  1  0
  5  1  1  0
  1  2  2  0
  1  7  1  0
  2  3  1  0
  3  4  1  0
  4  8  2  0
  4  6  1  0
  6 10  1  0
  6  7  2  0
  8  9  1  0
  9 10  2  0
  2 24  1  0
  3 25  1  0
  7 26  1  0
  9 27  1  0
 10 28  1  0
 14 29  1  0
 17 30  1  0
 19 31  1  0
 20 32  1  0
 21 33  1  0
 22 34  1  1
 22 35  1  0
 23 36  1  1
 23 37  1  0
 23 38  1  0
M  END
>  <Pose ID>  (150)
417

>  <Score>  (150)
-6.694631576538086

>  <smiles>  (150)
CCc1cn(-c2ccccn2)nc1Oc1c[nH]c2nccc-2c1

$$$$

     RDKit          3D

 34 37  0  0  0  0  0  0  0  0999 V2000
   27.1850    8.2360   -9.5140 C   0  0  0  0  0  0  0  0  0  0  0  0
   27.0640    7.0430   -8.8070 N   0  0  0  0  0  0  0  0  0  0  0  0
   26.1620    6.9500   -7.7530 C   0  0  0  0  0  0  0  0  0  0  0  0
   25.3830    8.0490   -7.4050 C   0  0  0  0  0  0  0  0  0  0  0  0
   25.5050    9.2400   -8.1130 N   0  0  0  0  0  0  0  0  0  0  0  0
   26.4080    9.3340   -9.1660 C   0  0  0  0  0  0  0  0  0  0  0  0
   24.4350    8.1340   -6.3920 C   0  0  0  0  0  0  0  0  0  0  0  0
   24.1200    7.0420   -5.5940 C   0  0  0  0  0  0  0  0  0  0  0  0
   23.7770    9.3450   -6.2050 C   0  0  0  0  0  0  0  0  0  0  0  0
   23.1470    7.1560   -4.6120 N   0  0  0  0  0  0  0  0  0  0  0  0
   22.4860    8.3660   -4.4240 C   0  0  0  0  0  0  0  0  0  0  0  0
   24.4320   10.1560   -7.3450 N   0  0  0  0  0  0  0  0  0  0  0  0
   22.8000    9.4600   -5.2220 C   0  0  0  0  0  0  0  0  0  0  0  0
   28.0980    8.3280  -10.5800 C   0  0  0  0  0  0  0  0  0  0  0  0
   29.1790    9.2010  -10.5700 O   0  0  0  0  0  0  0  0  0  0  0  0
   28.0790    7.6200  -11.7470 N   0  0  0  0  0  0  0  0  0  0  0  0
   29.7770    8.9720  -11.7860 C   0  0  0  0  0  0  0  0  0  0  0  0
   29.1120    8.0060  -12.5290 C   0  0  0  0  0  0  0  0  0  0  0  0
   22.0830   10.7730   -5.0210 C   0  0  1  0  0  0  0  0  0  0  0  0
   21.4280   10.8300   -3.6330 C   0  0  1  0  0  0  0  0  0  0  0  0
   23.0750   11.9460   -5.1200 C   0  0  1  0  0  0  0  0  0  0  0  0
   26.0643    6.0075   -7.1943 H   0  0  0  0  0  0  0  0  0  0  0  0
   26.5072   10.2772   -9.7233 H   0  0  0  0  0  0  0  0  0  0  0  0
   24.6428    6.0854   -5.7408 H   0  0  0  0  0  0  0  0  0  0  0  0
   21.7154    8.4567   -3.6443 H   0  0  0  0  0  0  0  0  0  0  0  0
   30.6808    9.4952  -12.1317 H   0  0  0  0  0  0  0  0  0  0  0  0
   29.3690    7.6362  -13.5326 H   0  0  0  0  0  0  0  0  0  0  0  0
   21.3146   10.8515   -5.8042 H   0  0  0  0  0  0  0  0  0  0  0  0
   22.2054   10.7624   -2.8577 H   0  0  0  0  0  0  0  0  0  0  0  0
   20.8826   11.7790   -3.5236 H   0  0  0  0  0  0  0  0  0  0  0  0
   20.7269    9.9895   -3.5236 H   0  0  0  0  0  0  0  0  0  0  0  0
   23.3543   12.2763   -4.1086 H   0  0  0  0  0  0  0  0  0  0  0  0
   23.9755   11.6200   -5.6611 H   0  0  0  0  0  0  0  0  0  0  0  0
   22.6040   12.7799   -5.6611 H   0  0  0  0  0  0  0  0  0  0  0  0
  1 14  1  0
  1  6  2  0
  1  2  1  0
  2  3  2  0
  3  4  1  0
  4  5  1  0
  4  7  2  0
  5  6  1  0
  5 12  1  0
  7  9  1  0
  7  8  1  0
  8 10  2  0
  9 12  2  0
  9 13  1  0
 10 11  1  0
 11 13  2  0
 13 19  1  0
 14 16  2  0
 14 15  1  0
 15 17  1  0
 16 18  1  0
 17 18  2  0
 19 21  1  0
 19 20  1  0
  3 22  1  0
  6 23  1  0
  8 24  1  0
 11 25  1  0
 17 26  1  0
 18 27  1  0
 19 28  1  6
 20 29  1  1
 20 30  1  0
 20 31  1  0
 21 32  1  1
 21 33  1  0
 21 34  1  0
M  END
>  <Pose ID>  (151)
65

>  <Score>  (151)
-6.691283226013184

>  <smiles>  (151)
CC(C)c1cncc2c1nn1cc(-c3ncco3)ncc21

$$$$

     RDKit          3D

 38 41  0  0  0  0  0  0  0  0999 V2000
   27.3180    7.9400  -10.2150 C   0  0  0  0  0  0  0  0  0  0  0  0
   28.3950    7.1630  -10.6170 C   0  0  0  0  0  0  0  0  0  0  0  0
   29.3870    7.7160  -11.4150 N   0  0  0  0  0  0  0  0  0  0  0  0
   26.5000    7.2000   -9.4500 N   0  0  0  0  0  0  0  0  0  0  0  0
   29.3050    9.0470  -11.8110 C   0  0  0  0  0  0  0  0  0  0  0  0
   28.2250    9.8220  -11.4080 C   0  0  0  0  0  0  0  0  0  0  0  0
   27.2320    9.2720  -10.6110 C   0  0  0  0  0  0  0  0  0  0  0  0
   30.1280    9.7930  -12.5660 N   0  0  0  0  0  0  0  0  0  0  0  0
   29.6500   10.9900  -12.6760 C   0  0  0  0  0  0  0  0  0  0  0  0
   28.4790   10.9680  -11.9270 C   0  0  0  0  0  0  0  0  0  0  0  0
   25.9480    7.6650   -8.2200 C   0  0  0  0  0  0  0  0  0  0  0  0
   25.2860    6.7530   -7.4060 N   0  0  0  0  0  0  0  0  0  0  0  0
   24.6320    7.1900   -6.2600 C   0  0  0  0  0  0  0  0  0  0  0  0
   24.6400    8.5400   -5.9300 C   0  0  0  0  0  0  0  0  0  0  0  0
   25.3010    9.4530   -6.7450 C   0  0  0  0  0  0  0  0  0  0  0  0
   25.9780    9.0080   -7.8740 C   0  0  0  0  0  0  0  0  0  0  0  0
   24.0410    6.3720   -5.5310 O   0  0  0  0  0  0  0  0  0  0  0  0
   30.0360   12.1570  -13.3250 C   0  0  0  0  0  0  0  0  0  0  0  0
   29.2520   13.2990  -13.2280 C   0  0  0  0  0  0  0  0  0  0  0  0
   28.0810   13.2770  -12.4790 N   0  0  0  0  0  0  0  0  0  0  0  0
   27.6620   12.1270  -11.8420 C   0  0  0  0  0  0  0  0  0  0  0  0
   25.2810   10.9230   -6.4050 C   0  0  1  0  0  0  0  0  0  0  0  0
   26.6440   11.6030   -6.3550 C   0  0  1  0  0  0  0  0  0  0  0  0
   28.4626    6.1107  -10.3039 H   0  0  0  0  0  0  0  0  0  0  0  0
   30.1860    7.1393  -11.7148 H   0  0  0  0  0  0  0  0  0  0  0  0
   26.2593    6.2500   -9.7668 H   0  0  0  0  0  0  0  0  0  0  0  0
   26.3777    9.8873  -10.2922 H   0  0  0  0  0  0  0  0  0  0  0  0
   25.2801    5.7529   -7.6523 H   0  0  0  0  0  0  0  0  0  0  0  0
   24.1230    8.8869   -5.0232 H   0  0  0  0  0  0  0  0  0  0  0  0
   26.5389    9.7222   -8.4947 H   0  0  0  0  0  0  0  0  0  0  0  0
   30.9635   12.1759  -13.9161 H   0  0  0  0  0  0  0  0  0  0  0  0
   29.5575   14.2212  -13.7439 H   0  0  0  0  0  0  0  0  0  0  0  0
   26.7162   12.1081  -11.2807 H   0  0  0  0  0  0  0  0  0  0  0  0
   24.6728   11.4380   -7.1632 H   0  0  0  0  0  0  0  0  0  0  0  0
   24.8713   10.9921   -5.3865 H   0  0  0  0  0  0  0  0  0  0  0  0
   26.9415   11.7514   -5.3064 H   0  0  0  0  0  0  0  0  0  0  0  0
   27.3881   10.9705   -6.8612 H   0  0  0  0  0  0  0  0  0  0  0  0
   26.5862   12.5779   -6.8612 H   0  0  0  0  0  0  0  0  0  0  0  0
  1  2  2  0
  1  7  1  0
  1  4  1  0
  2  3  1  0
  3  5  1  0
  5  8  2  0
  5  6  1  0
  6 10  1  0
  6  7  2  0
  8  9  1  0
  9 18  1  0
  9 10  2  0
 10 21  1  0
 18 19  2  0
 19 20  1  0
 20 21  2  0
  4 11  1  0
 11 16  2  0
 11 12  1  0
 12 13  1  0
 13 14  1  0
 13 17  2  0
 14 15  2  0
 15 16  1  0
 15 22  1  0
 22 23  1  0
  2 24  1  0
  3 25  1  0
  4 26  1  0
  7 27  1  0
 12 28  1  0
 14 29  1  0
 16 30  1  0
 18 31  1  0
 19 32  1  0
 21 33  1  0
 22 34  1  6
 22 35  1  0
 23 36  1  1
 23 37  1  0
 23 38  1  0
M  END
>  <Pose ID>  (152)
109

>  <Score>  (152)
-6.677457332611084

>  <smiles>  (152)
CCc1cc(Nc2c[nH]c3nc4ccncc4c-3c2)[nH]c(=O)c1

$$$$

     RDKit          3D

 18 19  0  0  0  0  0  0  0  0999 V2000
   28.6330    9.6860  -11.9780 C   0  0  0  0  0  0  0  0  0  0  0  0
   29.3210    8.4930  -11.8710 C   0  0  0  0  0  0  0  0  0  0  0  0
   28.8560    7.4990  -11.0180 N   0  0  0  0  0  0  0  0  0  0  0  0
   27.7130    7.7130  -10.2580 C   0  0  0  0  0  0  0  0  0  0  0  0
   27.4990    9.9180  -11.2020 C   0  0  0  0  0  0  0  0  0  0  0  0
   27.0350    8.9230  -10.3500 C   0  0  0  0  0  0  0  0  0  0  0  0
   27.0810    6.9190   -9.3760 N   0  0  0  0  0  0  0  0  0  0  0  0
   25.9880    7.5910   -8.8760 C   0  0  0  0  0  0  0  0  0  0  0  0
   26.1040    8.8160   -9.5710 C   0  0  0  0  0  0  0  0  0  0  0  0
   30.5750    8.2680  -12.6800 C   0  0  1  0  0  0  0  0  0  0  0  0
   28.9823   10.4575  -12.6799 H   0  0  0  0  0  0  0  0  0  0  0  0
   29.3593    6.6030  -10.9493 H   0  0  0  0  0  0  0  0  0  0  0  0
   26.9743   10.8829  -11.2635 H   0  0  0  0  0  0  0  0  0  0  0  0
   25.2360    7.2657   -8.1420 H   0  0  0  0  0  0  0  0  0  0  0  0
   25.3867    9.6354   -9.4159 H   0  0  0  0  0  0  0  0  0  0  0  0
   31.4269    8.1152  -12.0011 H   0  0  0  0  0  0  0  0  0  0  0  0
   30.4475    7.3784  -13.3143 H   0  0  0  0  0  0  0  0  0  0  0  0
   30.7647    9.1465  -13.3143 H   0  0  0  0  0  0  0  0  0  0  0  0
  1  2  2  0
  1  5  1  0
  2 10  1  0
  2  3  1  0
  3  4  1  0
  4  6  1  0
  4  7  2  0
  5  6  2  0
  6  9  1  0
  7  8  1  0
  8  9  2  0
  1 11  1  0
  3 12  1  0
  5 13  1  0
  8 14  1  0
  9 15  1  0
 10 16  1  1
 10 17  1  0
 10 18  1  0
M  END
>  <Pose ID>  (153)
192

>  <Score>  (153)
-6.665337085723877

>  <smiles>  (153)
Cc1ccc2ccnc-2[nH]1

$$$$

     RDKit          3D

 34 37  0  0  0  0  0  0  0  0999 V2000
   27.3330    8.1960   -9.5920 C   0  0  0  0  0  0  0  0  0  0  0  0
   26.9940    6.9780   -9.0130 N   0  0  0  0  0  0  0  0  0  0  0  0
   26.0870    6.9370   -7.9630 C   0  0  0  0  0  0  0  0  0  0  0  0
   25.5180    8.1160   -7.4900 C   0  0  0  0  0  0  0  0  0  0  0  0
   25.8550    9.3320   -8.0690 N   0  0  0  0  0  0  0  0  0  0  0  0
   26.7660    9.3730   -9.1200 C   0  0  0  0  0  0  0  0  0  0  0  0
   24.5970    8.2620   -6.4600 C   0  0  0  0  0  0  0  0  0  0  0  0
   24.0840    7.1650   -5.7750 C   0  0  0  0  0  0  0  0  0  0  0  0
   24.1650    9.5430   -6.1360 C   0  0  0  0  0  0  0  0  0  0  0  0
   23.1400    7.3490   -4.7730 N   0  0  0  0  0  0  0  0  0  0  0  0
   22.7090    8.6320   -4.4500 C   0  0  0  0  0  0  0  0  0  0  0  0
   24.9630   10.3390   -7.1940 N   0  0  0  0  0  0  0  0  0  0  0  0
   23.2200    9.7280   -5.1330 C   0  0  0  0  0  0  0  0  0  0  0  0
   28.2520    8.2370  -10.6570 C   0  0  0  0  0  0  0  0  0  0  0  0
   29.4740    8.8940  -10.5690 O   0  0  0  0  0  0  0  0  0  0  0  0
   30.0050    8.7010  -11.7980 C   0  0  0  0  0  0  0  0  0  0  0  0
   29.1830    7.9700  -12.6040 N   0  0  0  0  0  0  0  0  0  0  0  0
   28.0640    7.6560  -11.8960 C   0  0  0  0  0  0  0  0  0  0  0  0
   22.7530   11.1190   -4.7840 C   0  0  1  0  0  0  0  0  0  0  0  0
   23.5320   12.2130   -5.5330 C   0  0  1  0  0  0  0  0  0  0  0  0
   23.0930   13.5860   -5.2230 C   0  0  1  0  0  0  0  0  0  0  0  0
   25.8181    5.9736   -7.5051 H   0  0  0  0  0  0  0  0  0  0  0  0
   27.0369   10.3364   -9.5766 H   0  0  0  0  0  0  0  0  0  0  0  0
   24.4265    6.1506   -6.0274 H   0  0  0  0  0  0  0  0  0  0  0  0
   21.9639    8.7781   -3.6541 H   0  0  0  0  0  0  0  0  0  0  0  0
   30.9857    9.0886  -12.1109 H   0  0  0  0  0  0  0  0  0  0  0  0
   27.1988    7.0680  -12.2361 H   0  0  0  0  0  0  0  0  0  0  0  0
   21.6872   11.2072   -5.0416 H   0  0  0  0  0  0  0  0  0  0  0  0
   22.9255   11.2667   -3.7077 H   0  0  0  0  0  0  0  0  0  0  0  0
   24.5957   12.1225   -5.2676 H   0  0  0  0  0  0  0  0  0  0  0  0
   23.3461   12.0558   -6.6057 H   0  0  0  0  0  0  0  0  0  0  0  0
   23.0502   13.7197   -4.1320 H   0  0  0  0  0  0  0  0  0  0  0  0
   23.8061   14.3048   -5.6529 H   0  0  0  0  0  0  0  0  0  0  0  0
   22.0951   13.7578   -5.6529 H   0  0  0  0  0  0  0  0  0  0  0  0
  1 14  1  0
  1  6  2  0
  1  2  1  0
  2  3  2  0
  3  4  1  0
  4  5  1  0
  4  7  2  0
  5  6  1  0
  5 12  1  0
  7  9  1  0
  7  8  1  0
  8 10  2  0
  9 12  2  0
  9 13  1  0
 10 11  1  0
 11 13  2  0
 13 19  1  0
 14 18  2  0
 14 15  1  0
 15 16  1  0
 16 17  2  0
 17 18  1  0
 19 20  1  0
 20 21  1  0
  3 22  1  0
  6 23  1  0
  8 24  1  0
 11 25  1  0
 16 26  1  0
 18 27  1  0
 19 28  1  1
 19 29  1  0
 20 30  1  6
 20 31  1  0
 21 32  1  1
 21 33  1  0
 21 34  1  0
M  END
>  <Pose ID>  (154)
83

>  <Score>  (154)
-6.641856670379639

>  <smiles>  (154)
CCCc1cncc2c1nn1cc(-c3cnco3)ncc21

$$$$

     RDKit          3D

 38 40  0  0  0  0  0  0  0  0999 V2000
   28.1700    9.9240  -11.5720 C   0  0  0  0  0  0  0  0  0  0  0  0
   29.0050    8.8210  -11.4310 C   0  0  0  0  0  0  0  0  0  0  0  0
   28.6700    7.7410  -10.6270 N   0  0  0  0  0  0  0  0  0  0  0  0
   27.4430    7.7350   -9.9750 C   0  0  0  0  0  0  0  0  0  0  0  0
   26.5690    8.8060  -10.1300 C   0  0  0  0  0  0  0  0  0  0  0  0
   26.9180    9.8640  -10.9440 C   0  0  0  0  0  0  0  0  0  0  0  0
   27.1260    6.7740   -9.2580 O   0  0  0  0  0  0  0  0  0  0  0  0
   30.2400    8.7990  -12.0710 N   0  0  0  0  0  0  0  0  0  0  0  0
   30.6340    9.8740  -12.8550 C   0  0  0  0  0  0  0  0  0  0  0  0
   29.7970   10.9750  -12.9970 C   0  0  0  0  0  0  0  0  0  0  0  0
   28.5610   10.9980  -12.3430 C   0  0  0  0  0  0  0  0  0  0  0  0
   25.3310    9.0410   -9.5880 N   0  0  0  0  0  0  0  0  0  0  0  0
   25.1160    9.1220   -8.1130 C   0  0  0  0  0  0  0  0  0  0  0  0
   24.5270    8.0330   -7.4850 C   0  0  0  0  0  0  0  0  0  0  0  0
   24.2990    8.0610   -6.1130 C   0  0  0  0  0  0  0  0  0  0  0  0
   24.6640    9.1790   -5.3720 C   0  0  0  0  0  0  0  0  0  0  0  0
   25.2510   10.2690   -6.0010 C   0  0  0  0  0  0  0  0  0  0  0  0
   25.4790   10.2400   -7.3710 N   0  0  0  0  0  0  0  0  0  0  0  0
   27.5740   11.9580  -12.3130 O   0  0  0  0  0  0  0  0  0  0  0  0
   27.4840   13.1440  -13.1570 C   0  0  1  0  0  0  0  0  0  0  0  0
   25.6430   11.4830   -5.1960 C   0  0  1  0  0  0  0  0  0  0  0  0
   28.2740   14.2900  -12.5950 C   0  0  1  0  0  0  0  0  0  0  0  0
   29.3234    6.9527  -10.5147 H   0  0  0  0  0  0  0  0  0  0  0  0
   26.1971   10.6793  -11.1039 H   0  0  0  0  0  0  0  0  0  0  0  0
   31.6088    9.8551  -13.3643 H   0  0  0  0  0  0  0  0  0  0  0  0
   30.1061   11.8257  -13.6221 H   0  0  0  0  0  0  0  0  0  0  0  0
   24.5255    9.1653  -10.2177 H   0  0  0  0  0  0  0  0  0  0  0  0
   24.2406    7.1481   -8.0722 H   0  0  0  0  0  0  0  0  0  0  0  0
   23.8304    7.1994   -5.6150 H   0  0  0  0  0  0  0  0  0  0  0  0
   24.4877    9.2003   -4.2864 H   0  0  0  0  0  0  0  0  0  0  0  0
   27.8729   12.8999  -14.1566 H   0  0  0  0  0  0  0  0  0  0  0  0
   26.4282   13.4487  -13.2068 H   0  0  0  0  0  0  0  0  0  0  0  0
   25.5682   11.2514   -4.1233 H   0  0  0  0  0  0  0  0  0  0  0  0
   26.6780   11.7654   -5.4389 H   0  0  0  0  0  0  0  0  0  0  0  0
   24.9686   12.3174   -5.4389 H   0  0  0  0  0  0  0  0  0  0  0  0
   28.2466   14.2502  -11.4961 H   0  0  0  0  0  0  0  0  0  0  0  0
   29.3166   14.2200  -12.9386 H   0  0  0  0  0  0  0  0  0  0  0  0
   27.8377   15.2395  -12.9386 H   0  0  0  0  0  0  0  0  0  0  0  0
  1 11  1  0
  1  2  2  0
  1  6  1  0
  2  8  1  0
  2  3  1  0
  3  4  1  0
  4  5  1  0
  4  7  2  0
  5  6  2  0
  5 12  1  0
  8  9  2  0
  9 10  1  0
 10 11  2  0
 11 19  1  0
 12 13  1  0
 13 14  2  0
 13 18  1  0
 14 15  1  0
 15 16  2  0
 16 17  1  0
 17 18  2  0
 17 21  1  0
 19 20  1  0
 20 22  1  0
  3 23  1  0
  6 24  1  0
  9 25  1  0
 10 26  1  0
 12 27  1  0
 14 28  1  0
 15 29  1  0
 16 30  1  0
 20 31  1  6
 20 32  1  0
 21 33  1  1
 21 34  1  0
 21 35  1  0
 22 36  1  1
 22 37  1  0
 22 38  1  0
M  END
>  <Pose ID>  (155)
176

>  <Score>  (155)
-6.6366801261901855

>  <smiles>  (155)
CCOc1ccnc2[nH]c(=O)c(Nc3cccc(C)n3)cc12

$$$$

     RDKit          3D

 40 42  0  0  0  0  0  0  0  0999 V2000
   28.7290    9.5390  -11.9940 C   0  0  0  0  0  0  0  0  0  0  0  0
   29.4140    8.3610  -11.7640 C   0  0  0  0  0  0  0  0  0  0  0  0
   28.9140    7.4380  -10.8520 N   0  0  0  0  0  0  0  0  0  0  0  0
   27.7430    7.7090  -10.1540 C   0  0  0  0  0  0  0  0  0  0  0  0
   27.5640    9.8280  -11.2830 C   0  0  0  0  0  0  0  0  0  0  0  0
   27.0700    8.9040  -10.3700 C   0  0  0  0  0  0  0  0  0  0  0  0
   27.0790    6.9850   -9.2360 N   0  0  0  0  0  0  0  0  0  0  0  0
   25.9660    7.6930   -8.8360 C   0  0  0  0  0  0  0  0  0  0  0  0
   26.1080    8.8570   -9.6210 C   0  0  0  0  0  0  0  0  0  0  0  0
   24.9190    7.5210   -7.9640 N   0  0  0  0  0  0  0  0  0  0  0  0
   24.7350    8.2630   -6.7890 C   0  0  0  0  0  0  0  0  0  0  0  0
   24.0340    9.4610   -6.8460 C   0  0  0  0  0  0  0  0  0  0  0  0
   23.8420   10.2100   -5.6910 C   0  0  0  0  0  0  0  0  0  0  0  0
   24.3540    9.7600   -4.4790 C   0  0  0  0  0  0  0  0  0  0  0  0
   25.0580    8.5630   -4.4220 N   0  0  0  0  0  0  0  0  0  0  0  0
   25.2470    7.8150   -5.5800 C   0  0  0  0  0  0  0  0  0  0  0  0
   23.1260   11.3390   -6.0010 N   0  0  0  0  0  0  0  0  0  0  0  0
   23.6760   12.6630   -5.7990 C   0  0  0  0  0  0  0  0  0  0  0  0
   24.8170   12.8260   -5.5010 O   0  0  0  0  0  0  0  0  0  0  0  0
   22.6440   13.7130   -5.9840 C   0  0  1  0  0  0  0  0  0  0  0  0
   23.1280   14.7110   -7.0470 C   0  0  1  0  0  0  0  0  0  0  0  0
   29.1990   10.4330  -12.9310 O   0  0  0  0  0  0  0  0  0  0  0  0
   29.9770   11.4230  -12.2580 C   0  0  1  0  0  0  0  0  0  0  0  0
   30.3517    8.1542  -12.3006 H   0  0  0  0  0  0  0  0  0  0  0  0
   29.4128    6.5510  -10.6933 H   0  0  0  0  0  0  0  0  0  0  0  0
   27.0396   10.7815  -11.4441 H   0  0  0  0  0  0  0  0  0  0  0  0
   25.3849    9.6837   -9.5605 H   0  0  0  0  0  0  0  0  0  0  0  0
   24.2213    6.7974   -8.1887 H   0  0  0  0  0  0  0  0  0  0  0  0
   23.6307    9.8170   -7.8055 H   0  0  0  0  0  0  0  0  0  0  0  0
   24.2017   10.3520   -3.5645 H   0  0  0  0  0  0  0  0  0  0  0  0
   25.8032    6.8670   -5.5367 H   0  0  0  0  0  0  0  0  0  0  0  0
   22.1756   11.2422   -6.3862 H   0  0  0  0  0  0  0  0  0  0  0  0
   21.7026   13.2501   -6.3148 H   0  0  0  0  0  0  0  0  0  0  0  0
   22.4744   14.2380   -5.0324 H   0  0  0  0  0  0  0  0  0  0  0  0
   23.5566   15.5949   -6.5519 H   0  0  0  0  0  0  0  0  0  0  0  0
   23.8951   14.2344   -7.6751 H   0  0  0  0  0  0  0  0  0  0  0  0
   22.2788   15.0183   -7.6751 H   0  0  0  0  0  0  0  0  0  0  0  0
   29.8747   11.2929  -11.1705 H   0  0  0  0  0  0  0  0  0  0  0  0
   31.0340   11.3145  -12.5425 H   0  0  0  0  0  0  0  0  0  0  0  0
   29.6217   12.4244  -12.5425 H   0  0  0  0  0  0  0  0  0  0  0  0
 10  8  1  0
 10 11  1  0
  1 22  1  0
  1  2  2  0
  1  5  1  0
  2  3  1  0
  3  4  1  0
  4  6  1  0
  4  7  2  0
  5  6  2  0
  6  9  1  0
  7  8  1  0
  8  9  2  0
 22 23  1  0
 11 12  2  0
 11 16  1  0
 12 13  1  0
 13 17  1  0
 13 14  2  0
 14 15  1  0
 15 16  2  0
 17 18  1  0
 18 20  1  0
 18 19  2  0
 20 21  1  0
  2 24  1  0
  3 25  1  0
  5 26  1  0
  9 27  1  0
 10 28  1  0
 12 29  1  0
 14 30  1  0
 16 31  1  0
 17 32  1  0
 20 33  1  6
 20 34  1  0
 21 35  1  1
 21 36  1  0
 21 37  1  0
 23 38  1  1
 23 39  1  0
 23 40  1  0
M  END
>  <Pose ID>  (156)
223

>  <Score>  (156)
-6.636530876159668

>  <smiles>  (156)
CCC(=O)Nc1cncc(Nc2cc3cc(OC)c[nH]c-3n2)c1

$$$$

     RDKit          3D

 40 43  0  0  0  0  0  0  0  0999 V2000
   27.2740    7.8970  -10.1090 C   0  0  0  0  0  0  0  0  0  0  0  0
   28.3930    7.1530  -10.4450 C   0  0  0  0  0  0  0  0  0  0  0  0
   29.3560    7.6870  -11.2920 N   0  0  0  0  0  0  0  0  0  0  0  0
   26.4980    7.1790   -9.2810 N   0  0  0  0  0  0  0  0  0  0  0  0
   29.1980    8.9710  -11.8000 C   0  0  0  0  0  0  0  0  0  0  0  0
   28.0770    9.7180  -11.4610 C   0  0  0  0  0  0  0  0  0  0  0  0
   27.1140    9.1840  -10.6170 C   0  0  0  0  0  0  0  0  0  0  0  0
   29.9820    9.6950  -12.6200 N   0  0  0  0  0  0  0  0  0  0  0  0
   29.3870   10.9170  -12.8330 C   0  0  0  0  0  0  0  0  0  0  0  0
   28.2170   10.7720  -12.0580 C   0  0  0  0  0  0  0  0  0  0  0  0
   25.9170    7.7210   -8.0940 C   0  0  0  0  0  0  0  0  0  0  0  0
   25.3080    6.8470   -7.2010 N   0  0  0  0  0  0  0  0  0  0  0  0
   24.6280    7.3430   -6.0950 C   0  0  0  0  0  0  0  0  0  0  0  0
   24.5600    8.7160   -5.8810 C   0  0  0  0  0  0  0  0  0  0  0  0
   25.1710    9.5910   -6.7730 C   0  0  0  0  0  0  0  0  0  0  0  0
   25.8760    9.0880   -7.8640 C   0  0  0  0  0  0  0  0  0  0  0  0
   23.9420    6.6850   -5.0700 C   0  0  0  0  0  0  0  0  0  0  0  0
   23.5920    7.6670   -4.1680 N   0  0  0  0  0  0  0  0  0  0  0  0
   23.9490    8.8570   -4.5270 C   0  0  0  0  0  0  0  0  0  0  0  0
   23.7980   10.0200   -3.8050 O   0  0  0  0  0  0  0  0  0  0  0  0
   23.1670    9.8070   -2.5270 C   0  0  1  0  0  0  0  0  0  0  0  0
   27.1870   11.8690  -11.9720 C   0  0  1  0  0  0  0  0  0  0  0  0
   27.7440   13.2420  -11.6090 C   0  0  1  0  0  0  0  0  0  0  0  0
   28.5193    6.1379  -10.0406 H   0  0  0  0  0  0  0  0  0  0  0  0
   30.1864    7.1318  -11.5433 H   0  0  0  0  0  0  0  0  0  0  0  0
   26.3133    6.1925   -9.5124 H   0  0  0  0  0  0  0  0  0  0  0  0
   26.2261    9.7757  -10.3496 H   0  0  0  0  0  0  0  0  0  0  0  0
   29.7283   11.7694  -13.4387 H   0  0  0  0  0  0  0  0  0  0  0  0
   25.3607    5.8306   -7.3591 H   0  0  0  0  0  0  0  0  0  0  0  0
   25.0977   10.6775   -6.6173 H   0  0  0  0  0  0  0  0  0  0  0  0
   26.4006    9.7756   -8.5437 H   0  0  0  0  0  0  0  0  0  0  0  0
   23.7265    5.6087   -4.9982 H   0  0  0  0  0  0  0  0  0  0  0  0
   23.8779   10.0470   -1.7226 H   0  0  0  0  0  0  0  0  0  0  0  0
   22.2835   10.4567   -2.4415 H   0  0  0  0  0  0  0  0  0  0  0  0
   22.8580    8.7548   -2.4415 H   0  0  0  0  0  0  0  0  0  0  0  0
   26.6897   11.9490  -12.9499 H   0  0  0  0  0  0  0  0  0  0  0  0
   26.5019   11.5877  -11.1587 H   0  0  0  0  0  0  0  0  0  0  0  0
   27.7851   13.3433  -10.5144 H   0  0  0  0  0  0  0  0  0  0  0  0
   28.7565   13.3487  -12.0254 H   0  0  0  0  0  0  0  0  0  0  0  0
   27.0920   14.0240  -12.0254 H   0  0  0  0  0  0  0  0  0  0  0  0
  4  1  1  0
  4 11  1  0
  1  7  1  0
  1  2  2  0
  2  3  1  0
  3  5  1  0
  5  8  2  0
  5  6  1  0
  6 10  1  0
  6  7  2  0
  8  9  1  0
  9 10  2  0
 10 22  1  0
 22 23  1  0
 11 16  2  0
 11 12  1  0
 12 13  1  0
 13 14  1  0
 13 17  2  0
 14 15  2  0
 14 19  1  0
 15 16  1  0
 17 18  1  0
 18 19  2  0
 19 20  1  0
 20 21  1  0
  2 24  1  0
  3 25  1  0
  4 26  1  0
  7 27  1  0
  9 28  1  0
 12 29  1  0
 15 30  1  0
 16 31  1  0
 17 32  1  0
 21 33  1  1
 21 34  1  0
 21 35  1  0
 22 36  1  6
 22 37  1  0
 23 38  1  1
 23 39  1  0
 23 40  1  0
M  END
>  <Pose ID>  (157)
65

>  <Score>  (157)
-6.628599643707275

>  <smiles>  (157)
CCc1cnc2[nH]cc(Nc3ccc4c(OC)ncc-4[nH]3)cc1-2

$$$$

     RDKit          3D

 38 41  0  0  0  0  0  0  0  0999 V2000
   27.2970    7.8580  -10.2050 C   0  0  0  0  0  0  0  0  0  0  0  0
   28.4220    7.1300  -10.5600 C   0  0  0  0  0  0  0  0  0  0  0  0
   29.3960    7.7080  -11.3650 N   0  0  0  0  0  0  0  0  0  0  0  0
   26.5090    7.1030   -9.4240 N   0  0  0  0  0  0  0  0  0  0  0  0
   29.2470    9.0150  -11.8100 C   0  0  0  0  0  0  0  0  0  0  0  0
   28.1200    9.7440  -11.4540 C   0  0  0  0  0  0  0  0  0  0  0  0
   27.1450    9.1690  -10.6510 C   0  0  0  0  0  0  0  0  0  0  0  0
   30.0400    9.7770  -12.5810 N   0  0  0  0  0  0  0  0  0  0  0  0
   29.4600   10.9720  -12.7300 C   0  0  0  0  0  0  0  0  0  0  0  0
   28.2530   10.9440  -12.0410 C   0  0  0  0  0  0  0  0  0  0  0  0
   25.9110    7.5820   -8.2200 C   0  0  0  0  0  0  0  0  0  0  0  0
   25.2870    6.6660   -7.3810 N   0  0  0  0  0  0  0  0  0  0  0  0
   24.5900    7.1070   -6.2630 C   0  0  0  0  0  0  0  0  0  0  0  0
   24.5190    8.4680   -5.9810 C   0  0  0  0  0  0  0  0  0  0  0  0
   25.1430    9.3860   -6.8210 C   0  0  0  0  0  0  0  0  0  0  0  0
   25.8630    8.9380   -7.9240 C   0  0  0  0  0  0  0  0  0  0  0  0
   24.0340    6.2860   -5.5130 O   0  0  0  0  0  0  0  0  0  0  0  0
   29.8390   12.1180  -13.4200 C   0  0  0  0  0  0  0  0  0  0  0  0
   29.0110   13.2350  -13.4210 N   0  0  0  0  0  0  0  0  0  0  0  0
   27.8050   13.2060  -12.7320 C   0  0  0  0  0  0  0  0  0  0  0  0
   27.4250   12.0610  -12.0420 C   0  0  0  0  0  0  0  0  0  0  0  0
   25.0390   10.8630   -6.5360 C   0  0  1  0  0  0  0  0  0  0  0  0
   24.6350   11.1110   -5.0750 C   0  0  1  0  0  0  0  0  0  0  0  0
   28.5435    6.0960  -10.2049 H   0  0  0  0  0  0  0  0  0  0  0  0
   30.2301    7.1660  -11.6322 H   0  0  0  0  0  0  0  0  0  0  0  0
   26.3268    6.1297   -9.7076 H   0  0  0  0  0  0  0  0  0  0  0  0
   26.2535    9.7475  -10.3671 H   0  0  0  0  0  0  0  0  0  0  0  0
   25.3415    5.6586   -7.5885 H   0  0  0  0  0  0  0  0  0  0  0  0
   23.9699    8.8182   -5.0945 H   0  0  0  0  0  0  0  0  0  0  0  0
   26.3949    9.6588   -8.5624 H   0  0  0  0  0  0  0  0  0  0  0  0
   30.7941   12.1410  -13.9652 H   0  0  0  0  0  0  0  0  0  0  0  0
   27.1503   14.0900  -12.7326 H   0  0  0  0  0  0  0  0  0  0  0  0
   26.4698   12.0385  -11.4970 H   0  0  0  0  0  0  0  0  0  0  0  0
   26.0138   11.3361   -6.7256 H   0  0  0  0  0  0  0  0  0  0  0  0
   24.2689   11.2947   -7.1922 H   0  0  0  0  0  0  0  0  0  0  0  0
   25.3793   10.6541   -4.4062 H   0  0  0  0  0  0  0  0  0  0  0  0
   24.5881   12.1937   -4.8863 H   0  0  0  0  0  0  0  0  0  0  0  0
   23.6483   10.6628   -4.8863 H   0  0  0  0  0  0  0  0  0  0  0  0
  1  7  1  0
  1  2  2  0
  1  4  1  0
  2  3  1  0
  3  5  1  0
  5  8  2  0
  5  6  1  0
  6 10  1  0
  6  7  2  0
  8  9  1  0
  9 18  1  0
  9 10  2  0
 10 21  1  0
 18 19  2  0
 19 20  1  0
 20 21  2  0
  4 11  1  0
 11 16  2  0
 11 12  1  0
 12 13  1  0
 13 14  1  0
 13 17  2  0
 14 15  2  0
 15 16  1  0
 15 22  1  0
 22 23  1  0
  2 24  1  0
  3 25  1  0
  4 26  1  0
  7 27  1  0
 12 28  1  0
 14 29  1  0
 16 30  1  0
 18 31  1  0
 20 32  1  0
 21 33  1  0
 22 34  1  6
 22 35  1  0
 23 36  1  1
 23 37  1  0
 23 38  1  0
M  END
>  <Pose ID>  (158)
118

>  <Score>  (158)
-6.6210761070251465

>  <smiles>  (158)
CCc1cc(Nc2c[nH]c3nc4cnccc4c-3c2)[nH]c(=O)c1

$$$$

     RDKit          3D

 35 38  0  0  0  0  0  0  0  0999 V2000
   28.5500   11.8810  -11.7050 C   0  0  0  0  0  0  0  0  0  0  0  0
   28.2490   10.6520  -11.1940 N   0  0  0  0  0  0  0  0  0  0  0  0
   27.1460   10.3570  -10.4000 C   0  0  0  0  0  0  0  0  0  0  0  0
   27.6620   12.9130  -11.4270 C   0  0  0  0  0  0  0  0  0  0  0  0
   27.0780    9.1020  -10.0600 N   0  0  0  0  0  0  0  0  0  0  0  0
   26.4250   12.6500  -10.5550 C   0  0  0  0  0  0  0  0  0  0  0  0
   26.2370   11.3570  -10.0820 C   0  0  0  0  0  0  0  0  0  0  0  0
   27.9040   14.1900  -11.9180 C   0  0  0  0  0  0  0  0  0  0  0  0
   29.0370   14.4360  -12.6870 N   0  0  0  0  0  0  0  0  0  0  0  0
   29.9240   13.4070  -12.9650 C   0  0  0  0  0  0  0  0  0  0  0  0
   29.6690   12.1200  -12.4860 C   0  0  0  0  0  0  0  0  0  0  0  0
   26.0430    8.6620   -9.2800 C   0  0  0  0  0  0  0  0  0  0  0  0
   27.9870    8.0510  -10.4100 N   0  0  0  0  0  0  0  0  0  0  0  0
   26.2740    7.3220   -9.1410 C   0  0  0  0  0  0  0  0  0  0  0  0
   27.4730    6.9950   -9.8310 C   0  0  0  0  0  0  0  0  0  0  0  0
   30.6850   11.2540  -12.9300 C   0  0  0  0  0  0  0  0  0  0  0  0
   31.6130   12.0300  -13.7140 C   0  0  0  0  0  0  0  0  0  0  0  0
   31.1580   13.2490  -13.6530 O   0  0  0  0  0  0  0  0  0  0  0  0
   26.9380   15.3110  -11.6180 C   0  0  1  0  0  0  0  0  0  0  0  0
   27.5770   16.1680  -10.5480 C   0  0  1  0  0  0  0  0  0  0  0  0
   26.4160   15.9890  -12.9110 C   0  0  1  0  0  0  0  0  0  0  0  0
   25.7149   13.4548  -10.3141 H   0  0  0  0  0  0  0  0  0  0  0  0
   25.3647   11.1249   -9.4533 H   0  0  0  0  0  0  0  0  0  0  0  0
   25.2146    9.2519   -8.8608 H   0  0  0  0  0  0  0  0  0  0  0  0
   25.6384    6.6149   -8.5877 H   0  0  0  0  0  0  0  0  0  0  0  0
   27.9115    5.9871   -9.8730 H   0  0  0  0  0  0  0  0  0  0  0  0
   30.7582   10.1773  -12.7170 H   0  0  0  0  0  0  0  0  0  0  0  0
   32.5070   11.6721  -14.2458 H   0  0  0  0  0  0  0  0  0  0  0  0
   25.9844   14.9674  -11.1906 H   0  0  0  0  0  0  0  0  0  0  0  0
   27.2934   15.7876   -9.5556 H   0  0  0  0  0  0  0  0  0  0  0  0
   28.6712   16.1330  -10.6551 H   0  0  0  0  0  0  0  0  0  0  0  0
   27.2312   17.2067  -10.6551 H   0  0  0  0  0  0  0  0  0  0  0  0
   25.7649   16.8346  -12.6444 H   0  0  0  0  0  0  0  0  0  0  0  0
   27.2680   16.3546  -13.5029 H   0  0  0  0  0  0  0  0  0  0  0  0
   25.8447   15.2588  -13.5029 H   0  0  0  0  0  0  0  0  0  0  0  0
  1 11  1  0
  1  4  1  0
  1  2  2  0
  2  3  1  0
  3  7  2  0
  3  5  1  0
  4  8  1  0
  4  6  2  0
  6  7  1  0
  8  9  2  0
  8 19  1  0
  9 10  1  0
 10 18  1  0
 10 11  2  0
 11 16  1  0
 16 17  2  0
 17 18  1  0
  5 13  1  0
  5 12  1  0
 12 14  2  0
 13 15  2  0
 14 15  1  0
 19 21  1  0
 19 20  1  0
  6 22  1  0
  7 23  1  0
 12 24  1  0
 14 25  1  0
 15 26  1  0
 16 27  1  0
 17 28  1  0
 19 29  1  1
 20 30  1  1
 20 31  1  0
 20 32  1  0
 21 33  1  1
 21 34  1  0
 21 35  1  0
M  END
>  <Pose ID>  (159)
98

>  <Score>  (159)
-6.608694553375244

>  <smiles>  (159)
CC(C)c1nc2occc2c2nc(-n3cccn3)ccc12

$$$$

     RDKit          3D

 36 39  0  0  0  0  0  0  0  0999 V2000
   27.1980    8.2700   -9.9780 C   0  0  0  0  0  0  0  0  0  0  0  0
   27.8630    7.2440  -10.6400 C   0  0  0  0  0  0  0  0  0  0  0  0
   28.8620    7.5450  -11.5600 N   0  0  0  0  0  0  0  0  0  0  0  0
   29.1960    8.8680  -11.8150 C   0  0  0  0  0  0  0  0  0  0  0  0
   26.1840    7.7900   -9.0430 O   0  0  0  0  0  0  0  0  0  0  0  0
   28.5300    9.8940  -11.1530 C   0  0  0  0  0  0  0  0  0  0  0  0
   27.5330    9.5930  -10.2340 C   0  0  0  0  0  0  0  0  0  0  0  0
   30.1120    9.4030  -12.6450 N   0  0  0  0  0  0  0  0  0  0  0  0
   30.0570   10.7750  -12.5460 C   0  0  0  0  0  0  0  0  0  0  0  0
   29.0280   10.9190  -11.5890 C   0  0  0  0  0  0  0  0  0  0  0  0
   25.5890    8.5830   -8.0550 C   0  0  0  0  0  0  0  0  0  0  0  0
   25.1620    9.8450   -8.4330 N   0  0  0  0  0  0  0  0  0  0  0  0
   24.6390   10.4680   -7.3140 N   0  0  0  0  0  0  0  0  0  0  0  0
   24.7220    9.6220   -6.2790 C   0  0  0  0  0  0  0  0  0  0  0  0
   25.2760    8.4840   -6.7110 C   0  0  0  0  0  0  0  0  0  0  0  0
   24.1480   11.6850   -7.3150 C   0  0  0  0  0  0  0  0  0  0  0  0
   23.5400   12.4020   -6.2910 N   0  0  0  0  0  0  0  0  0  0  0  0
   24.2710   12.2470   -8.5810 C   0  0  0  0  0  0  0  0  0  0  0  0
   23.0550   13.6810   -6.5330 C   0  0  0  0  0  0  0  0  0  0  0  0
   23.7860   13.5270   -8.8210 C   0  0  0  0  0  0  0  0  0  0  0  0
   23.1710   14.2350   -7.8170 C   0  0  0  0  0  0  0  0  0  0  0  0
   22.5210   14.3320   -5.6170 O   0  0  0  0  0  0  0  0  0  0  0  0
   23.2220   12.1830   -4.9290 C   0  0  1  0  0  0  0  0  0  0  0  0
   27.5995    6.1956  -10.4365 H   0  0  0  0  0  0  0  0  0  0  0  0
   29.3541    6.7858  -12.0523 H   0  0  0  0  0  0  0  0  0  0  0  0
   27.0079   10.4040   -9.7081 H   0  0  0  0  0  0  0  0  0  0  0  0
   30.6482   11.5432  -13.0660 H   0  0  0  0  0  0  0  0  0  0  0  0
   28.6909   11.9104  -11.2521 H   0  0  0  0  0  0  0  0  0  0  0  0
   24.3913    9.8278   -5.2503 H   0  0  0  0  0  0  0  0  0  0  0  0
   25.4569    7.5963   -6.0870 H   0  0  0  0  0  0  0  0  0  0  0  0
   24.7515   11.6792   -9.3913 H   0  0  0  0  0  0  0  0  0  0  0  0
   23.8950   13.9754   -9.8195 H   0  0  0  0  0  0  0  0  0  0  0  0
   22.7686   15.2384   -8.0201 H   0  0  0  0  0  0  0  0  0  0  0  0
   23.9614   12.6922   -4.2934 H   0  0  0  0  0  0  0  0  0  0  0  0
   22.2193   12.5830   -4.7177 H   0  0  0  0  0  0  0  0  0  0  0  0
   23.2382   11.1036   -4.7177 H   0  0  0  0  0  0  0  0  0  0  0  0
 11  5  1  0
 11 12  2  0
 11 15  1  0
 12 13  1  0
 13 16  1  0
 13 14  1  0
 14 15  2  0
 16 18  2  0
 16 17  1  0
 17 19  1  0
 17 23  1  0
 18 20  1  0
 19 21  1  0
 19 22  2  0
 20 21  2  0
  5  1  1  0
  1  2  2  0
  1  7  1  0
  2  3  1  0
  3  4  1  0
  4  8  2  0
  4  6  1  0
  6 10  1  0
  6  7  2  0
  8  9  1  0
  9 10  2  0
  2 24  1  0
  3 25  1  0
  7 26  1  0
  9 27  1  0
 10 28  1  0
 14 29  1  0
 15 30  1  0
 18 31  1  0
 20 32  1  0
 21 33  1  0
 23 34  1  1
 23 35  1  0
 23 36  1  0
M  END
>  <Pose ID>  (160)
230

>  <Score>  (160)
-6.60849666595459

>  <smiles>  (160)
Cn1c(-n2ccc(Oc3c[nH]c4nccc-4c3)n2)cccc1=O

$$$$

     RDKit          3D

 32 35  0  0  0  0  0  0  0  0999 V2000
   26.8990    8.8160  -10.4480 C   0  0  0  0  0  0  0  0  0  0  0  0
   27.5790    7.6100  -10.3080 C   0  0  0  0  0  0  0  0  0  0  0  0
   28.8270    7.4440  -10.8990 N   0  0  0  0  0  0  0  0  0  0  0  0
   25.6790    9.3030   -9.9970 N   0  0  0  0  0  0  0  0  0  0  0  0
   29.3940    8.4800  -11.6310 C   0  0  0  0  0  0  0  0  0  0  0  0
   28.7140    9.6850  -11.7730 C   0  0  0  0  0  0  0  0  0  0  0  0
   27.4660    9.8500  -11.1810 C   0  0  0  0  0  0  0  0  0  0  0  0
   30.5660    8.5590  -12.2850 N   0  0  0  0  0  0  0  0  0  0  0  0
   30.6710    9.8030  -12.8630 C   0  0  0  0  0  0  0  0  0  0  0  0
   29.4440   10.3750  -12.4620 C   0  0  0  0  0  0  0  0  0  0  0  0
   25.3430    9.5890   -8.5820 C   0  0  0  0  0  0  0  0  0  0  0  0
   24.1420   10.0600   -8.0760 N   0  0  0  0  0  0  0  0  0  0  0  0
   24.0060   10.3200   -6.7180 C   0  0  0  0  0  0  0  0  0  0  0  0
   25.0710   10.0720   -5.8590 C   0  0  0  0  0  0  0  0  0  0  0  0
   26.2710    9.5840   -6.3620 C   0  0  0  0  0  0  0  0  0  0  0  0
   26.4060    9.3420   -7.7220 N   0  0  0  0  0  0  0  0  0  0  0  0
   27.2240    9.3670   -5.5920 O   0  0  0  0  0  0  0  0  0  0  0  0
   22.9200   10.8260   -5.9810 C   0  0  0  0  0  0  0  0  0  0  0  0
   23.3160   10.8540   -4.6650 C   0  0  0  0  0  0  0  0  0  0  0  0
   24.5500   10.4560   -4.6100 O   0  0  0  0  0  0  0  0  0  0  0  0
   29.0550   11.7760  -12.8660 C   0  0  1  0  0  0  0  0  0  0  0  0
   27.1298    6.7886   -9.7304 H   0  0  0  0  0  0  0  0  0  0  0  0
   29.3315    6.5522  -10.7939 H   0  0  0  0  0  0  0  0  0  0  0  0
   24.9494    9.4795  -10.7022 H   0  0  0  0  0  0  0  0  0  0  0  0
   26.9269   10.8022  -11.2939 H   0  0  0  0  0  0  0  0  0  0  0  0
   31.4834   10.2319  -13.4681 H   0  0  0  0  0  0  0  0  0  0  0  0
   27.2951    8.9789   -8.0941 H   0  0  0  0  0  0  0  0  0  0  0  0
   21.9438   11.1385   -6.3801 H   0  0  0  0  0  0  0  0  0  0  0  0
   22.6962   11.1599   -3.8093 H   0  0  0  0  0  0  0  0  0  0  0  0
   28.8862   12.3839  -11.9649 H   0  0  0  0  0  0  0  0  0  0  0  0
   29.8630   12.2229  -13.4638 H   0  0  0  0  0  0  0  0  0  0  0  0
   28.1322   11.7424  -13.4638 H   0  0  0  0  0  0  0  0  0  0  0  0
  4  1  1  0
  4 11  1  0
 11 12  2  0
 11 16  1  0
 12 13  1  0
 13 18  1  0
 13 14  2  0
 14 15  1  0
 14 20  1  0
 15 16  1  0
 15 17  2  0
 18 19  2  0
 19 20  1  0
  1  7  1  0
  1  2  2  0
  2  3  1  0
  3  5  1  0
  5  8  2  0
  5  6  1  0
  6 10  1  0
  6  7  2  0
  8  9  1  0
  9 10  2  0
 10 21  1  0
  2 22  1  0
  3 23  1  0
  4 24  1  0
  7 25  1  0
  9 26  1  0
 16 27  1  0
 18 28  1  0
 19 29  1  0
 21 30  1  1
 21 31  1  0
 21 32  1  0
M  END
>  <Pose ID>  (161)
18

>  <Score>  (161)
-6.605239391326904

>  <smiles>  (161)
Cc1cnc2[nH]cc(Nc3nc4ccoc4c(=O)[nH]3)cc1-2

$$$$

     RDKit          3D

 38 41  0  0  0  0  0  0  0  0999 V2000
   27.7200    7.7810  -10.2270 C   0  0  0  0  0  0  0  0  0  0  0  0
   28.5700    7.0830  -11.0760 C   0  0  0  0  0  0  0  0  0  0  0  0
   29.3670    7.7700  -11.9830 N   0  0  0  0  0  0  0  0  0  0  0  0
   29.3140    9.1580  -12.0440 C   0  0  0  0  0  0  0  0  0  0  0  0
   26.9600    6.9160   -9.3300 O   0  0  0  0  0  0  0  0  0  0  0  0
   28.4620    9.8580  -11.1940 C   0  0  0  0  0  0  0  0  0  0  0  0
   27.6690    9.1700  -10.2850 C   0  0  0  0  0  0  0  0  0  0  0  0
   29.9750   10.0360  -12.8240 N   0  0  0  0  0  0  0  0  0  0  0  0
   29.5660   11.3090  -12.5030 C   0  0  0  0  0  0  0  0  0  0  0  0
   28.6270   11.0300  -11.4870 C   0  0  0  0  0  0  0  0  0  0  0  0
   26.2710    7.3690   -8.2000 C   0  0  0  0  0  0  0  0  0  0  0  0
   25.4900    8.5050   -8.3510 N   0  0  0  0  0  0  0  0  0  0  0  0
   24.9240    8.7970   -7.1220 N   0  0  0  0  0  0  0  0  0  0  0  0
   25.3250    7.8720   -6.2410 C   0  0  0  0  0  0  0  0  0  0  0  0
   26.1170    7.0020   -6.8750 C   0  0  0  0  0  0  0  0  0  0  0  0
   24.1070    9.8590   -6.8920 C   0  0  0  0  0  0  0  0  0  0  0  0
   24.5620   11.1330   -7.2090 C   0  0  0  0  0  0  0  0  0  0  0  0
   23.0050    9.7020   -6.0590 C   0  0  0  0  0  0  0  0  0  0  0  0
   22.3580   10.8190   -5.5450 N   0  0  0  0  0  0  0  0  0  0  0  0
   22.8130   12.0930   -5.8620 C   0  0  0  0  0  0  0  0  0  0  0  0
   23.9060   12.2610   -6.7110 C   0  0  0  0  0  0  0  0  0  0  0  0
   25.7710   11.2990   -8.0960 C   0  0  1  0  0  0  0  0  0  0  0  0
   26.3800   12.6990   -7.9390 C   0  0  1  0  0  0  0  0  0  0  0  0
   28.6119    5.9848  -11.0299 H   0  0  0  0  0  0  0  0  0  0  0  0
   29.9975    7.2509  -12.6106 H   0  0  0  0  0  0  0  0  0  0  0  0
   26.9998    9.7239   -9.6101 H   0  0  0  0  0  0  0  0  0  0  0  0
   29.8826   12.2757  -12.9216 H   0  0  0  0  0  0  0  0  0  0  0  0
   28.0696   11.8330  -10.9826 H   0  0  0  0  0  0  0  0  0  0  0  0
   25.0495    7.8345   -5.1767 H   0  0  0  0  0  0  0  0  0  0  0  0
   26.5805    6.1197   -6.4095 H   0  0  0  0  0  0  0  0  0  0  0  0
   22.6453    8.6935   -5.8069 H   0  0  0  0  0  0  0  0  0  0  0  0
   22.3077   12.9745   -5.4405 H   0  0  0  0  0  0  0  0  0  0  0  0
   24.2477   13.2699   -6.9854 H   0  0  0  0  0  0  0  0  0  0  0  0
   26.5245   10.5461   -7.8217 H   0  0  0  0  0  0  0  0  0  0  0  0
   25.4586   11.1680   -9.1425 H   0  0  0  0  0  0  0  0  0  0  0  0
   26.4832   12.9362   -6.8698 H   0  0  0  0  0  0  0  0  0  0  0  0
   27.3703   12.7238   -8.4173 H   0  0  0  0  0  0  0  0  0  0  0  0
   25.7231   13.4404   -8.4173 H   0  0  0  0  0  0  0  0  0  0  0  0
 11  5  1  0
 11 12  2  0
 11 15  1  0
 12 13  1  0
 13 16  1  0
 13 14  1  0
 14 15  2  0
 16 17  2  0
 16 18  1  0
 17 22  1  0
 17 21  1  0
 18 19  2  0
 19 20  1  0
 20 21  2  0
 22 23  1  0
  5  1  1  0
  1  2  2  0
  1  7  1  0
  2  3  1  0
  3  4  1  0
  4  8  2  0
  4  6  1  0
  6 10  1  0
  6  7  2  0
  8  9  1  0
  9 10  2  0
  2 24  1  0
  3 25  1  0
  7 26  1  0
  9 27  1  0
 10 28  1  0
 14 29  1  0
 15 30  1  0
 18 31  1  0
 20 32  1  0
 21 33  1  0
 22 34  1  1
 22 35  1  0
 23 36  1  1
 23 37  1  0
 23 38  1  0
M  END
>  <Pose ID>  (162)
471

>  <Score>  (162)
-6.60519552230835

>  <smiles>  (162)
CCc1ccncc1-n1ccc(Oc2c[nH]c3nccc-3c2)n1

$$$$

     RDKit          3D

 39 42  0  0  0  0  0  0  0  0999 V2000
   27.3760    7.9440  -10.1630 C   0  0  0  0  0  0  0  0  0  0  0  0
   28.4940    7.1840  -10.4680 C   0  0  0  0  0  0  0  0  0  0  0  0
   29.4790    7.7010  -11.3030 N   0  0  0  0  0  0  0  0  0  0  0  0
   26.5790    7.2440   -9.3390 N   0  0  0  0  0  0  0  0  0  0  0  0
   29.3430    8.9790  -11.8290 C   0  0  0  0  0  0  0  0  0  0  0  0
   28.2220    9.7400  -11.5230 C   0  0  0  0  0  0  0  0  0  0  0  0
   27.2380    9.2270  -10.6890 C   0  0  0  0  0  0  0  0  0  0  0  0
   30.1470    9.6840  -12.6440 N   0  0  0  0  0  0  0  0  0  0  0  0
   29.5680   10.9100  -12.8830 C   0  0  0  0  0  0  0  0  0  0  0  0
   28.3820   10.7850  -12.1300 C   0  0  0  0  0  0  0  0  0  0  0  0
   25.9810    7.8050   -8.1700 C   0  0  0  0  0  0  0  0  0  0  0  0
   25.3460    6.9490   -7.2780 N   0  0  0  0  0  0  0  0  0  0  0  0
   24.6510    7.4660   -6.1910 C   0  0  0  0  0  0  0  0  0  0  0  0
   24.5930    8.8410   -5.9970 C   0  0  0  0  0  0  0  0  0  0  0  0
   25.2280    9.6990   -6.8880 C   0  0  0  0  0  0  0  0  0  0  0  0
   25.9470    9.1760   -7.9580 C   0  0  0  0  0  0  0  0  0  0  0  0
   23.9420    6.8270   -5.1710 C   0  0  0  0  0  0  0  0  0  0  0  0
   23.5840    7.8240   -4.2890 N   0  0  0  0  0  0  0  0  0  0  0  0
   23.9580    9.0060   -4.6550 C   0  0  0  0  0  0  0  0  0  0  0  0
   25.1360   11.1930   -6.6960 C   0  0  1  0  0  0  0  0  0  0  0  0
   26.4660   11.6460   -6.1440 C   0  0  1  0  0  0  0  0  0  0  0  0
   26.4990   13.1630   -5.9140 C   0  0  1  0  0  0  0  0  0  0  0  0
   28.6024    6.1723  -10.0499 H   0  0  0  0  0  0  0  0  0  0  0  0
   30.3093    7.1359  -11.5312 H   0  0  0  0  0  0  0  0  0  0  0  0
   26.3903    6.2560   -9.5608 H   0  0  0  0  0  0  0  0  0  0  0  0
   26.3521    9.8314  -10.4441 H   0  0  0  0  0  0  0  0  0  0  0  0
   29.9295   11.7521  -13.4915 H   0  0  0  0  0  0  0  0  0  0  0  0
   27.6362   11.5927  -12.0922 H   0  0  0  0  0  0  0  0  0  0  0  0
   25.3905    5.9302   -7.4226 H   0  0  0  0  0  0  0  0  0  0  0  0
   26.4894    9.8503   -8.6371 H   0  0  0  0  0  0  0  0  0  0  0  0
   23.7167    5.7535   -5.0889 H   0  0  0  0  0  0  0  0  0  0  0  0
   23.8339    9.9431   -4.0924 H   0  0  0  0  0  0  0  0  0  0  0  0
   24.9379   11.6868   -7.6588 H   0  0  0  0  0  0  0  0  0  0  0  0
   24.3158   11.4525   -6.0105 H   0  0  0  0  0  0  0  0  0  0  0  0
   26.6464   11.1363   -5.1860 H   0  0  0  0  0  0  0  0  0  0  0  0
   27.2454   11.3938   -6.8781 H   0  0  0  0  0  0  0  0  0  0  0  0
   26.5035   13.3700   -4.8337 H   0  0  0  0  0  0  0  0  0  0  0  0
   27.4065   13.5836   -6.3717 H   0  0  0  0  0  0  0  0  0  0  0  0
   25.6106   13.6227   -6.3717 H   0  0  0  0  0  0  0  0  0  0  0  0
 11  4  1  0
 11 16  2  0
 11 12  1  0
 12 13  1  0
 13 14  1  0
 13 17  2  0
 14 15  2  0
 14 19  1  0
 15 16  1  0
 15 20  1  0
 17 18  1  0
 18 19  2  0
  4  1  1  0
  1  7  1  0
  1  2  2  0
  2  3  1  0
  3  5  1  0
  5  8  2  0
  5  6  1  0
  6 10  1  0
  6  7  2  0
  8  9  1  0
  9 10  2  0
 20 21  1  0
 21 22  1  0
  2 23  1  0
  3 24  1  0
  4 25  1  0
  7 26  1  0
  9 27  1  0
 10 28  1  0
 12 29  1  0
 16 30  1  0
 17 31  1  0
 19 32  1  0
 20 33  1  6
 20 34  1  0
 21 35  1  1
 21 36  1  0
 22 37  1  1
 22 38  1  0
 22 39  1  0
M  END
>  <Pose ID>  (163)
88

>  <Score>  (163)
-6.5997419357299805

>  <smiles>  (163)
CCCc1cc(Nc2c[nH]c3nccc-3c2)[nH]c2cncc1-2

$$$$

     RDKit          3D

 36 39  0  0  0  0  0  0  0  0999 V2000
   27.2790    7.9250  -10.1890 C   0  0  0  0  0  0  0  0  0  0  0  0
   28.3620    7.1560  -10.5810 C   0  0  0  0  0  0  0  0  0  0  0  0
   29.3500    7.7050  -11.3870 N   0  0  0  0  0  0  0  0  0  0  0  0
   26.4680    7.1870   -9.4130 N   0  0  0  0  0  0  0  0  0  0  0  0
   29.2550    9.0290  -11.7970 C   0  0  0  0  0  0  0  0  0  0  0  0
   28.1690    9.8010  -11.4040 C   0  0  0  0  0  0  0  0  0  0  0  0
   27.1810    9.2520  -10.5990 C   0  0  0  0  0  0  0  0  0  0  0  0
   30.0720    9.7750  -12.5640 N   0  0  0  0  0  0  0  0  0  0  0  0
   29.5350   11.0360  -12.6840 C   0  0  0  0  0  0  0  0  0  0  0  0
   28.3590   10.8890  -11.9200 C   0  0  0  0  0  0  0  0  0  0  0  0
   25.9130    7.6620   -8.1880 C   0  0  0  0  0  0  0  0  0  0  0  0
   25.2600    6.7550   -7.3620 N   0  0  0  0  0  0  0  0  0  0  0  0
   24.6040    7.1990   -6.2190 C   0  0  0  0  0  0  0  0  0  0  0  0
   24.6000    8.5530   -5.9050 C   0  0  0  0  0  0  0  0  0  0  0  0
   25.2530    9.4620   -6.7310 C   0  0  0  0  0  0  0  0  0  0  0  0
   25.9320    9.0100   -7.8570 C   0  0  0  0  0  0  0  0  0  0  0  0
   24.0190    6.3860   -5.4820 O   0  0  0  0  0  0  0  0  0  0  0  0
   25.3720   10.8600   -6.6500 C   0  0  0  0  0  0  0  0  0  0  0  0
   24.8160   11.7590   -7.5000 O   0  0  0  0  0  0  0  0  0  0  0  0
   25.1560   13.0100   -7.0860 N   0  0  0  0  0  0  0  0  0  0  0  0
   25.9120   12.8860   -5.9740 C   0  0  0  0  0  0  0  0  0  0  0  0
   26.0880   11.5460   -5.7160 C   0  0  0  0  0  0  0  0  0  0  0  0
   23.8880    9.0370   -4.6660 C   0  0  1  0  0  0  0  0  0  0  0  0
   28.4394    6.1088  -10.2533 H   0  0  0  0  0  0  0  0  0  0  0  0
   30.1531    7.1310  -11.6809 H   0  0  0  0  0  0  0  0  0  0  0  0
   26.2355    6.2310   -9.7177 H   0  0  0  0  0  0  0  0  0  0  0  0
   26.3223    9.8638  -10.2855 H   0  0  0  0  0  0  0  0  0  0  0  0
   29.9167   11.9143  -13.2252 H   0  0  0  0  0  0  0  0  0  0  0  0
   27.6462   11.7175  -11.7954 H   0  0  0  0  0  0  0  0  0  0  0  0
   25.2619    5.7521   -7.5968 H   0  0  0  0  0  0  0  0  0  0  0  0
   26.4854    9.7221   -8.4869 H   0  0  0  0  0  0  0  0  0  0  0  0
   26.3181   13.7152   -5.3761 H   0  0  0  0  0  0  0  0  0  0  0  0
   26.6933   11.1104   -4.9073 H   0  0  0  0  0  0  0  0  0  0  0  0
   24.4193    8.6758   -3.7731 H   0  0  0  0  0  0  0  0  0  0  0  0
   23.8677   10.1368   -4.6608 H   0  0  0  0  0  0  0  0  0  0  0  0
   22.8579    8.6512   -4.6608 H   0  0  0  0  0  0  0  0  0  0  0  0
 11  4  1  0
 11 16  2  0
 11 12  1  0
 12 13  1  0
 13 14  1  0
 13 17  2  0
 14 15  2  0
 14 23  1  0
 15 16  1  0
 15 18  1  0
 18 19  1  0
 18 22  2  0
 19 20  1  0
 20 21  2  0
 21 22  1  0
  4  1  1  0
  1  7  1  0
  1  2  2  0
  2  3  1  0
  3  5  1  0
  5  8  2  0
  5  6  1  0
  6 10  1  0
  6  7  2  0
  8  9  1  0
  9 10  2  0
  2 24  1  0
  3 25  1  0
  4 26  1  0
  7 27  1  0
  9 28  1  0
 10 29  1  0
 12 30  1  0
 16 31  1  0
 21 32  1  0
 22 33  1  0
 23 34  1  1
 23 35  1  0
 23 36  1  0
M  END
>  <Pose ID>  (164)
133

>  <Score>  (164)
-6.598177433013916

>  <smiles>  (164)
Cc1c(-c2ccno2)cc(Nc2c[nH]c3nccc-3c2)[nH]c1=O

$$$$

     RDKit          3D

 44 47  0  0  0  0  0  0  0  0999 V2000
   27.3100    8.4150  -10.0970 C   0  0  0  0  0  0  0  0  0  0  0  0
   28.1520    7.4000  -10.5350 C   0  0  0  0  0  0  0  0  0  0  0  0
   29.1890    7.6890  -11.4140 N   0  0  0  0  0  0  0  0  0  0  0  0
   29.3830    8.9910  -11.8570 C   0  0  0  0  0  0  0  0  0  0  0  0
   26.2780    7.9500   -9.1730 O   0  0  0  0  0  0  0  0  0  0  0  0
   28.5390   10.0070  -11.4200 C   0  0  0  0  0  0  0  0  0  0  0  0
   27.5040    9.7170  -10.5400 C   0  0  0  0  0  0  0  0  0  0  0  0
   30.3000    9.5130  -12.6950 N   0  0  0  0  0  0  0  0  0  0  0  0
   30.0690   10.8640  -12.8210 C   0  0  0  0  0  0  0  0  0  0  0  0
   28.9440   11.0090  -11.9790 C   0  0  0  0  0  0  0  0  0  0  0  0
   25.5040    8.7960   -8.3720 C   0  0  0  0  0  0  0  0  0  0  0  0
   24.9620    9.9180   -8.9810 N   0  0  0  0  0  0  0  0  0  0  0  0
   24.2650   10.6270   -8.0180 N   0  0  0  0  0  0  0  0  0  0  0  0
   24.3550    9.9660   -6.8570 C   0  0  0  0  0  0  0  0  0  0  0  0
   25.0800    8.8610   -7.0560 C   0  0  0  0  0  0  0  0  0  0  0  0
   23.5880   11.8560   -8.3550 C   0  0  1  0  0  0  0  0  0  0  0  0
   23.8840   10.1820   -5.5910 N   0  0  0  0  0  0  0  0  0  0  0  0
   24.4590   10.0940   -4.2400 C   0  0  1  0  0  0  0  0  0  0  0  0
   23.7800    9.3100   -3.2310 C   0  0  1  0  0  0  0  0  0  0  0  0
   22.3070    9.8460   -3.0340 C   0  0  1  0  0  0  0  0  0  0  0  0
   22.4550   10.5960   -5.5040 C   0  0  1  0  0  0  0  0  0  0  0  0
   21.5610    9.5990   -4.3330 C   0  0  1  0  0  0  0  0  0  0  0  0
   28.2740   12.3470  -11.7820 C   0  0  1  0  0  0  0  0  0  0  0  0
   27.9978    6.3682  -10.1861 H   0  0  0  0  0  0  0  0  0  0  0  0
   29.8142    6.9370  -11.7372 H   0  0  0  0  0  0  0  0  0  0  0  0
   26.8369   10.5200  -10.1934 H   0  0  0  0  0  0  0  0  0  0  0  0
   30.6088   11.6189  -13.4115 H   0  0  0  0  0  0  0  0  0  0  0  0
   25.3072    8.1106   -6.2844 H   0  0  0  0  0  0  0  0  0  0  0  0
   23.2991   12.3804   -7.4322 H   0  0  0  0  0  0  0  0  0  0  0  0
   24.2611   12.4956   -8.9448 H   0  0  0  0  0  0  0  0  0  0  0  0
   22.6877   11.6289   -8.9448 H   0  0  0  0  0  0  0  0  0  0  0  0
   25.4692    9.6723   -4.3481 H   0  0  0  0  0  0  0  0  0  0  0  0
   24.3898   11.1239   -3.8599 H   0  0  0  0  0  0  0  0  0  0  0  0
   23.7456    8.2575   -3.5490 H   0  0  0  0  0  0  0  0  0  0  0  0
   24.3259    9.3936   -2.2797 H   0  0  0  0  0  0  0  0  0  0  0  0
   21.8170    9.3069   -2.2098 H   0  0  0  0  0  0  0  0  0  0  0  0
   22.3118   10.9173   -2.7845 H   0  0  0  0  0  0  0  0  0  0  0  0
   22.4059   11.6488   -5.1890 H   0  0  0  0  0  0  0  0  0  0  0  0
   21.9950   10.4632   -6.4944 H   0  0  0  0  0  0  0  0  0  0  0  0
   21.5947    8.5355   -4.6122 H   0  0  0  0  0  0  0  0  0  0  0  0
   20.4924    9.8531   -4.2741 H   0  0  0  0  0  0  0  0  0  0  0  0
   28.1718   12.5510  -10.7059 H   0  0  0  0  0  0  0  0  0  0  0  0
   28.8840   13.1347  -12.2483 H   0  0  0  0  0  0  0  0  0  0  0  0
   27.2778   12.3304  -12.2483 H   0  0  0  0  0  0  0  0  0  0  0  0
  5  1  1  0
  5 11  1  0
  1  7  1  0
  1  2  2  0
  2  3  1  0
  3  4  1  0
  4  8  2  0
  4  6  1  0
  6 10  1  0
  6  7  2  0
  8  9  1  0
  9 10  2  0
 10 23  1  0
 11 12  2  0
 11 15  1  0
 12 13  1  0
 13 16  1  0
 13 14  1  0
 14 15  2  0
 14 17  1  0
 17 21  1  0
 17 18  1  0
 18 19  1  0
 19 20  1  0
 20 22  1  0
 21 22  1  0
  2 24  1  0
  3 25  1  0
  7 26  1  0
  9 27  1  0
 15 28  1  0
 16 29  1  1
 16 30  1  0
 16 31  1  0
 18 32  1  6
 18 33  1  0
 19 34  1  6
 19 35  1  0
 20 36  1  1
 20 37  1  0
 21 38  1  1
 21 39  1  0
 22 40  1  6
 22 41  1  0
 23 42  1  1
 23 43  1  0
 23 44  1  0
M  END
>  <Pose ID>  (165)
557

>  <Score>  (165)
-6.597619533538818

>  <smiles>  (165)
Cc1cnc2[nH]cc(Oc3cc(N4CCCCC4)n(C)n3)cc1-2

$$$$

     RDKit          3D

 36 39  0  0  0  0  0  0  0  0999 V2000
   27.2630    7.9740  -10.2000 C   0  0  0  0  0  0  0  0  0  0  0  0
   28.2930    7.1750  -10.6720 C   0  0  0  0  0  0  0  0  0  0  0  0
   29.2730    7.7190  -11.4930 N   0  0  0  0  0  0  0  0  0  0  0  0
   26.4510    7.2370   -9.4270 N   0  0  0  0  0  0  0  0  0  0  0  0
   29.2230    9.0640  -11.8400 C   0  0  0  0  0  0  0  0  0  0  0  0
   28.1910    9.8630  -11.3660 C   0  0  0  0  0  0  0  0  0  0  0  0
   27.2110    9.3220  -10.5460 C   0  0  0  0  0  0  0  0  0  0  0  0
   30.0430    9.8060  -12.6040 N   0  0  0  0  0  0  0  0  0  0  0  0
   29.5600   11.0950  -12.6450 C   0  0  0  0  0  0  0  0  0  0  0  0
   28.4110   10.9650  -11.8410 C   0  0  0  0  0  0  0  0  0  0  0  0
   25.9660    7.6790   -8.1590 C   0  0  0  0  0  0  0  0  0  0  0  0
   25.3050    6.7640   -7.3480 N   0  0  0  0  0  0  0  0  0  0  0  0
   24.7150    7.1840   -6.1610 C   0  0  0  0  0  0  0  0  0  0  0  0
   24.7890    8.5200   -5.7860 C   0  0  0  0  0  0  0  0  0  0  0  0
   25.4490    9.4340   -6.5970 C   0  0  0  0  0  0  0  0  0  0  0  0
   26.0610    9.0070   -7.7680 C   0  0  0  0  0  0  0  0  0  0  0  0
   24.1240    6.3630   -5.4360 O   0  0  0  0  0  0  0  0  0  0  0  0
   25.6350   10.8210   -6.4570 C   0  0  0  0  0  0  0  0  0  0  0  0
   25.0880   11.7830   -7.2420 O   0  0  0  0  0  0  0  0  0  0  0  0
   25.5620   12.9340   -6.7510 C   0  0  0  0  0  0  0  0  0  0  0  0
   26.3580   11.4180   -5.4370 N   0  0  0  0  0  0  0  0  0  0  0  0
   26.3520   12.7460   -5.6140 C   0  0  0  0  0  0  0  0  0  0  0  0
   27.4940   12.1340  -11.5780 C   0  0  1  0  0  0  0  0  0  0  0  0
   28.3343    6.1108  -10.3966 H   0  0  0  0  0  0  0  0  0  0  0  0
   30.0374    7.1250  -11.8449 H   0  0  0  0  0  0  0  0  0  0  0  0
   26.1636    6.3073   -9.7647 H   0  0  0  0  0  0  0  0  0  0  0  0
   26.3948    9.9565  -10.1701 H   0  0  0  0  0  0  0  0  0  0  0  0
   29.9602   11.9798  -13.1618 H   0  0  0  0  0  0  0  0  0  0  0  0
   25.2521    5.7738   -7.6266 H   0  0  0  0  0  0  0  0  0  0  0  0
   24.3246    8.8538   -4.8464 H   0  0  0  0  0  0  0  0  0  0  0  0
   26.6221    9.7227   -8.3868 H   0  0  0  0  0  0  0  0  0  0  0  0
   25.3529   13.9191   -7.1935 H   0  0  0  0  0  0  0  0  0  0  0  0
   26.8536   13.5121   -5.0045 H   0  0  0  0  0  0  0  0  0  0  0  0
   27.3827   12.2758  -10.4929 H   0  0  0  0  0  0  0  0  0  0  0  0
   27.9220   13.0435  -12.0247 H   0  0  0  0  0  0  0  0  0  0  0  0
   26.5087   11.9349  -12.0247 H   0  0  0  0  0  0  0  0  0  0  0  0
  4  1  1  0
  4 11  1  0
  1  2  2  0
  1  7  1  0
  2  3  1  0
  3  5  1  0
  5  8  2  0
  5  6  1  0
  6 10  1  0
  6  7  2  0
  8  9  1  0
  9 10  2  0
 10 23  1  0
 11 16  2  0
 11 12  1  0
 12 13  1  0
 13 14  1  0
 13 17  2  0
 14 15  2  0
 15 16  1  0
 15 18  1  0
 18 19  1  0
 18 21  2  0
 19 20  1  0
 20 22  2  0
 21 22  1  0
  2 24  1  0
  3 25  1  0
  4 26  1  0
  7 27  1  0
  9 28  1  0
 12 29  1  0
 14 30  1  0
 16 31  1  0
 20 32  1  0
 22 33  1  0
 23 34  1  1
 23 35  1  0
 23 36  1  0
M  END
>  <Pose ID>  (166)
138

>  <Score>  (166)
-6.591702938079834

>  <smiles>  (166)
Cc1cnc2[nH]cc(Nc3cc(-c4ncco4)cc(=O)[nH]3)cc1-2

$$$$

     RDKit          3D

 36 39  0  0  0  0  0  0  0  0999 V2000
   27.3070    7.9980  -10.2130 C   0  0  0  0  0  0  0  0  0  0  0  0
   28.3300    7.1880  -10.6810 C   0  0  0  0  0  0  0  0  0  0  0  0
   29.3260    7.7220  -11.4880 N   0  0  0  0  0  0  0  0  0  0  0  0
   26.4770    7.2670   -9.4510 N   0  0  0  0  0  0  0  0  0  0  0  0
   29.2960    9.0710  -11.8290 C   0  0  0  0  0  0  0  0  0  0  0  0
   28.2710    9.8820  -11.3590 C   0  0  0  0  0  0  0  0  0  0  0  0
   27.2750    9.3480  -10.5510 C   0  0  0  0  0  0  0  0  0  0  0  0
   30.1340    9.8060  -12.5790 N   0  0  0  0  0  0  0  0  0  0  0  0
   29.6690   11.1030  -12.6170 C   0  0  0  0  0  0  0  0  0  0  0  0
   28.5100   10.9820  -11.8230 C   0  0  0  0  0  0  0  0  0  0  0  0
   25.9880    7.7070   -8.1850 C   0  0  0  0  0  0  0  0  0  0  0  0
   25.3070    6.7960   -7.3880 N   0  0  0  0  0  0  0  0  0  0  0  0
   24.7120    7.2160   -6.2020 C   0  0  0  0  0  0  0  0  0  0  0  0
   24.7980    8.5490   -5.8170 C   0  0  0  0  0  0  0  0  0  0  0  0
   25.4790    9.4610   -6.6170 C   0  0  0  0  0  0  0  0  0  0  0  0
   26.0970    9.0320   -7.7870 C   0  0  0  0  0  0  0  0  0  0  0  0
   24.1030    6.4000   -5.4880 O   0  0  0  0  0  0  0  0  0  0  0  0
   25.6840   10.8440   -6.4660 C   0  0  0  0  0  0  0  0  0  0  0  0
   25.1570   11.8180   -7.2510 O   0  0  0  0  0  0  0  0  0  0  0  0
   26.3670   11.4370   -5.3990 N   0  0  0  0  0  0  0  0  0  0  0  0
   26.2820   12.7670   -5.5030 C   0  0  0  0  0  0  0  0  0  0  0  0
   25.5610   12.9630   -6.6950 C   0  0  0  0  0  0  0  0  0  0  0  0
   30.2400   12.3130  -13.3130 C   0  0  1  0  0  0  0  0  0  0  0  0
   28.3528    6.1214  -10.4129 H   0  0  0  0  0  0  0  0  0  0  0  0
   30.0867    7.1199  -11.8341 H   0  0  0  0  0  0  0  0  0  0  0  0
   26.1790    6.3439   -9.7974 H   0  0  0  0  0  0  0  0  0  0  0  0
   26.4631    9.9904  -10.1792 H   0  0  0  0  0  0  0  0  0  0  0  0
   27.8518   11.8423  -11.6315 H   0  0  0  0  0  0  0  0  0  0  0  0
   25.2422    5.8089   -7.6748 H   0  0  0  0  0  0  0  0  0  0  0  0
   24.3278    8.8826   -4.8802 H   0  0  0  0  0  0  0  0  0  0  0  0
   26.6726    9.7436   -8.3973 H   0  0  0  0  0  0  0  0  0  0  0  0
   26.6818   13.5290   -4.8177 H   0  0  0  0  0  0  0  0  0  0  0  0
   25.3522   13.9543   -7.1236 H   0  0  0  0  0  0  0  0  0  0  0  0
   30.5831   13.0400  -12.5622 H   0  0  0  0  0  0  0  0  0  0  0  0
   31.0889   12.0075  -13.9422 H   0  0  0  0  0  0  0  0  0  0  0  0
   29.4644   12.7741  -13.9422 H   0  0  0  0  0  0  0  0  0  0  0  0
  4  1  1  0
  4 11  1  0
  1  2  2  0
  1  7  1  0
  2  3  1  0
  3  5  1  0
  5  8  2  0
  5  6  1  0
  6 10  1  0
  6  7  2  0
  8  9  1  0
  9 23  1  0
  9 10  2  0
 11 16  2  0
 11 12  1  0
 12 13  1  0
 13 14  1  0
 13 17  2  0
 14 15  2  0
 15 16  1  0
 15 18  1  0
 18 19  1  0
 18 20  2  0
 19 22  1  0
 20 21  1  0
 21 22  2  0
  2 24  1  0
  3 25  1  0
  4 26  1  0
  7 27  1  0
 10 28  1  0
 12 29  1  0
 14 30  1  0
 16 31  1  0
 21 32  1  0
 22 33  1  0
 23 34  1  1
 23 35  1  0
 23 36  1  0
M  END
>  <Pose ID>  (167)
139

>  <Score>  (167)
-6.589407444000244

>  <smiles>  (167)
Cc1cc2cc(Nc3cc(-c4ncco4)cc(=O)[nH]3)c[nH]c-2n1

$$$$

     RDKit          3D

 34 37  0  0  0  0  0  0  0  0999 V2000
   27.1810    8.2600   -9.5370 C   0  0  0  0  0  0  0  0  0  0  0  0
   27.1160    7.0740   -8.8130 N   0  0  0  0  0  0  0  0  0  0  0  0
   26.2160    6.9520   -7.7600 C   0  0  0  0  0  0  0  0  0  0  0  0
   25.3820    8.0160   -7.4310 C   0  0  0  0  0  0  0  0  0  0  0  0
   25.4470    9.2000   -8.1560 N   0  0  0  0  0  0  0  0  0  0  0  0
   26.3480    9.3230   -9.2080 C   0  0  0  0  0  0  0  0  0  0  0  0
   24.4270    8.0690   -6.4220 C   0  0  0  0  0  0  0  0  0  0  0  0
   24.1640    6.9740   -5.6080 C   0  0  0  0  0  0  0  0  0  0  0  0
   23.7080    9.2470   -6.2560 C   0  0  0  0  0  0  0  0  0  0  0  0
   23.1820    7.0540   -4.6310 N   0  0  0  0  0  0  0  0  0  0  0  0
   22.4610    8.2320   -4.4650 C   0  0  0  0  0  0  0  0  0  0  0  0
   24.3270   10.0730   -7.4060 N   0  0  0  0  0  0  0  0  0  0  0  0
   22.7230    9.3280   -5.2780 C   0  0  0  0  0  0  0  0  0  0  0  0
   28.0920    8.3820  -10.6010 C   0  0  0  0  0  0  0  0  0  0  0  0
   29.1280    9.3090  -10.6010 O   0  0  0  0  0  0  0  0  0  0  0  0
   28.1130    7.6570  -11.7580 N   0  0  0  0  0  0  0  0  0  0  0  0
   29.7420    9.0910  -11.8120 C   0  0  0  0  0  0  0  0  0  0  0  0
   29.1290    8.0830  -12.5410 C   0  0  0  0  0  0  0  0  0  0  0  0
   21.9410   10.6060   -5.0990 C   0  0  1  0  0  0  0  0  0  0  0  0
   21.3940    8.3200   -3.4020 C   0  0  1  0  0  0  0  0  0  0  0  0
   21.5040    9.5090   -2.4560 C   0  0  1  0  0  0  0  0  0  0  0  0
   26.1634    6.0144   -7.1872 H   0  0  0  0  0  0  0  0  0  0  0  0
   26.4015   10.2613   -9.7797 H   0  0  0  0  0  0  0  0  0  0  0  0
   24.7349    6.0428   -5.7383 H   0  0  0  0  0  0  0  0  0  0  0  0
   30.6203    9.6528  -12.1629 H   0  0  0  0  0  0  0  0  0  0  0  0
   29.4084    7.7116  -13.5380 H   0  0  0  0  0  0  0  0  0  0  0  0
   21.8152   10.8116   -4.0257 H   0  0  0  0  0  0  0  0  0  0  0  0
   22.4850   11.4378   -5.5704 H   0  0  0  0  0  0  0  0  0  0  0  0
   20.9528   10.5003   -5.5704 H   0  0  0  0  0  0  0  0  0  0  0  0
   20.4180    8.3777   -3.9061 H   0  0  0  0  0  0  0  0  0  0  0  0
   21.5187    7.4244   -2.7756 H   0  0  0  0  0  0  0  0  0  0  0  0
   21.4711    9.1539   -1.4154 H   0  0  0  0  0  0  0  0  0  0  0  0
   22.4545   10.0331   -2.6348 H   0  0  0  0  0  0  0  0  0  0  0  0
   20.6658   10.1986   -2.6348 H   0  0  0  0  0  0  0  0  0  0  0  0
  1 14  1  0
  1  6  2  0
  1  2  1  0
  2  3  2  0
  3  4  1  0
  4  5  1  0
  4  7  2  0
  5  6  1  0
  5 12  1  0
  7  9  1  0
  7  8  1  0
  8 10  2  0
  9 12  2  0
  9 13  1  0
 10 11  1  0
 11 13  2  0
 11 20  1  0
 13 19  1  0
 14 16  2  0
 14 15  1  0
 15 17  1  0
 16 18  1  0
 17 18  2  0
 20 21  1  0
  3 22  1  0
  6 23  1  0
  8 24  1  0
 17 25  1  0
 18 26  1  0
 19 27  1  1
 19 28  1  0
 19 29  1  0
 20 30  1  6
 20 31  1  0
 21 32  1  1
 21 33  1  0
 21 34  1  0
M  END
>  <Pose ID>  (168)
66

>  <Score>  (168)
-6.588324069976807

>  <smiles>  (168)
CCc1ncc2c(nn3cc(-c4ncco4)ncc23)c1C

$$$$

     RDKit          3D

 31 33  0  0  0  0  0  0  0  0999 V2000
   26.1700    9.3700   -8.7880 C   0  0  0  0  0  0  0  0  0  0  0  0
   25.6810   10.6400   -8.4610 N   0  0  0  0  0  0  0  0  0  0  0  0
   25.8370    8.1790   -8.1450 N   0  0  0  0  0  0  0  0  0  0  0  0
   26.4050    6.9830   -8.5700 C   0  0  0  0  0  0  0  0  0  0  0  0
   27.3030    6.9730   -9.6270 N   0  0  0  0  0  0  0  0  0  0  0  0
   27.6200    8.1480  -10.2580 C   0  0  0  0  0  0  0  0  0  0  0  0
   27.1690    9.4300   -9.9720 C   0  0  0  0  0  0  0  0  0  0  0  0
   24.4630   11.1490   -9.1060 C   0  0  1  0  0  0  0  0  0  0  0  0
   23.9930   12.3900   -8.7760 C   0  0  0  0  0  0  0  0  0  0  0  0
   26.7390   11.3550   -7.7630 C   0  0  1  0  0  0  0  0  0  0  0  0
   26.1800   12.1570   -6.5100 C   0  0  1  0  0  0  0  0  0  0  0  0
   25.1240   13.1800   -6.9790 C   0  0  1  0  0  0  0  0  0  0  0  0
   24.7940   13.3620   -8.2370 N   0  0  0  0  0  0  0  0  0  0  0  0
   22.7190   12.7390   -8.9520 O   0  0  0  0  0  0  0  0  0  0  0  0
   28.5250    7.9430  -11.2930 C   0  0  0  0  0  0  0  0  0  0  0  0
   28.9780    9.0230  -12.0420 N   0  0  0  0  0  0  0  0  0  0  0  0
   28.5270   10.3050  -11.7570 C   0  0  0  0  0  0  0  0  0  0  0  0
   27.6220   10.5090  -10.7210 C   0  0  0  0  0  0  0  0  0  0  0  0
   26.1412    6.0415   -8.0661 H   0  0  0  0  0  0  0  0  0  0  0  0
   24.6545   11.1574  -10.1892 H   0  0  0  0  0  0  0  0  0  0  0  0
   23.6766   10.4708   -8.7431 H   0  0  0  0  0  0  0  0  0  0  0  0
   27.4900   10.6301   -7.4159 H   0  0  0  0  0  0  0  0  0  0  0  0
   27.1828   12.0786   -8.4626 H   0  0  0  0  0  0  0  0  0  0  0  0
   25.7187   11.4535   -5.8013 H   0  0  0  0  0  0  0  0  0  0  0  0
   27.0080   12.6870   -6.0166 H   0  0  0  0  0  0  0  0  0  0  0  0
   24.1924   12.9077   -6.4613 H   0  0  0  0  0  0  0  0  0  0  0  0
   25.6328   14.1288   -6.7536 H   0  0  0  0  0  0  0  0  0  0  0  0
   25.1143   14.1769   -8.7794 H   0  0  0  0  0  0  0  0  0  0  0  0
   28.8823    6.9275  -11.5191 H   0  0  0  0  0  0  0  0  0  0  0  0
   28.8855   11.1590  -12.3505 H   0  0  0  0  0  0  0  0  0  0  0  0
   27.2648   11.5245  -10.4946 H   0  0  0  0  0  0  0  0  0  0  0  0
  1  7  1  0
  1  2  1  0
  1  3  2  0
  2  8  1  0
  2 10  1  0
  3  4  1  0
  4  5  2  0
  5  6  1  0
  6 15  1  0
  6  7  2  0
  7 18  1  0
  8  9  1  0
  9 14  2  0
  9 13  1  0
 10 11  1  0
 11 12  1  0
 12 13  1  0
 15 16  2  0
 16 17  1  0
 17 18  2  0
  4 19  1  0
  8 20  1  6
  8 21  1  0
 10 22  1  1
 10 23  1  0
 11 24  1  1
 11 25  1  0
 12 26  1  1
 12 27  1  0
 13 28  1  0
 15 29  1  0
 17 30  1  0
 18 31  1  0
M  END
>  <Pose ID>  (169)
45

>  <Score>  (169)
-6.586084842681885

>  <smiles>  (169)
O=C1CN(c2ncnc3cnccc23)CCCN1

$$$$

     RDKit          3D

 38 40  0  0  0  0  0  0  0  0999 V2000
   28.3470   10.0260  -11.5370 C   0  0  0  0  0  0  0  0  0  0  0  0
   29.1170    8.8710  -11.4550 C   0  0  0  0  0  0  0  0  0  0  0  0
   28.7090    7.7610  -10.7290 N   0  0  0  0  0  0  0  0  0  0  0  0
   27.4690    7.7820  -10.0980 C   0  0  0  0  0  0  0  0  0  0  0  0
   26.6600    8.9080  -10.1970 C   0  0  0  0  0  0  0  0  0  0  0  0
   27.0800    9.9940  -10.9360 C   0  0  0  0  0  0  0  0  0  0  0  0
   27.0860    6.7960   -9.4520 O   0  0  0  0  0  0  0  0  0  0  0  0
   30.3600    8.8210  -12.0740 N   0  0  0  0  0  0  0  0  0  0  0  0
   30.8290    9.9220  -12.7800 C   0  0  0  0  0  0  0  0  0  0  0  0
   30.0570   11.0740  -12.8640 C   0  0  0  0  0  0  0  0  0  0  0  0
   28.8110   11.1230  -12.2290 C   0  0  0  0  0  0  0  0  0  0  0  0
   25.4260    9.1770   -9.6610 N   0  0  0  0  0  0  0  0  0  0  0  0
   25.1870    9.1730   -8.1880 C   0  0  0  0  0  0  0  0  0  0  0  0
   24.5250    8.0810   -7.6400 C   0  0  0  0  0  0  0  0  0  0  0  0
   24.2730    8.0330   -6.2750 C   0  0  0  0  0  0  0  0  0  0  0  0
   24.6830    9.0790   -5.4570 C   0  0  0  0  0  0  0  0  0  0  0  0
   25.3420   10.1720   -6.0020 C   0  0  0  0  0  0  0  0  0  0  0  0
   25.5960   10.2190   -7.3680 N   0  0  0  0  0  0  0  0  0  0  0  0
   27.8770   12.1320  -12.1540 O   0  0  0  0  0  0  0  0  0  0  0  0
   28.1360   12.9120  -10.9880 C   0  0  1  0  0  0  0  0  0  0  0  0
   25.7840   11.3090   -5.1130 C   0  0  1  0  0  0  0  0  0  0  0  0
   30.5610   12.2680  -13.6360 C   0  0  1  0  0  0  0  0  0  0  0  0
   29.3163    6.9321  -10.6581 H   0  0  0  0  0  0  0  0  0  0  0  0
   26.4060   10.8548  -11.0569 H   0  0  0  0  0  0  0  0  0  0  0  0
   31.8117    9.8815  -13.2725 H   0  0  0  0  0  0  0  0  0  0  0  0
   24.6414    9.3879  -10.2940 H   0  0  0  0  0  0  0  0  0  0  0  0
   24.2002    7.2536   -8.2880 H   0  0  0  0  0  0  0  0  0  0  0  0
   23.7494    7.1680   -5.8419 H   0  0  0  0  0  0  0  0  0  0  0  0
   24.4848    9.0405   -4.3757 H   0  0  0  0  0  0  0  0  0  0  0  0
   27.9354   12.3080  -10.0908 H   0  0  0  0  0  0  0  0  0  0  0  0
   29.1885   13.2317  -10.9871 H   0  0  0  0  0  0  0  0  0  0  0  0
   27.4838   13.7978  -10.9871 H   0  0  0  0  0  0  0  0  0  0  0  0
   25.6701   11.0159   -4.0589 H   0  0  0  0  0  0  0  0  0  0  0  0
   26.8391   11.5444   -5.3161 H   0  0  0  0  0  0  0  0  0  0  0  0
   25.1649   12.1953   -5.3161 H   0  0  0  0  0  0  0  0  0  0  0  0
   30.8899   13.0472  -12.9326 H   0  0  0  0  0  0  0  0  0  0  0  0
   31.4078   11.9645  -14.2691 H   0  0  0  0  0  0  0  0  0  0  0  0
   29.7529   12.6630  -14.2691 H   0  0  0  0  0  0  0  0  0  0  0  0
  1 11  1  0
  1  2  2  0
  1  6  1  0
  2  8  1  0
  2  3  1  0
  3  4  1  0
  4  5  1  0
  4  7  2  0
  5  6  2  0
  5 12  1  0
  8  9  2  0
  9 10  1  0
 10 22  1  0
 10 11  2  0
 11 19  1  0
 12 13  1  0
 13 14  2  0
 13 18  1  0
 14 15  1  0
 15 16  2  0
 16 17  1  0
 17 18  2  0
 17 21  1  0
 19 20  1  0
  3 23  1  0
  6 24  1  0
  9 25  1  0
 12 26  1  0
 14 27  1  0
 15 28  1  0
 16 29  1  0
 20 30  1  1
 20 31  1  0
 20 32  1  0
 21 33  1  1
 21 34  1  0
 21 35  1  0
 22 36  1  1
 22 37  1  0
 22 38  1  0
M  END
>  <Pose ID>  (170)
179

>  <Score>  (170)
-6.577847003936768

>  <smiles>  (170)
COc1c(C)cnc2[nH]c(=O)c(Nc3cccc(C)n3)cc12

$$$$

     RDKit          3D

 29 32  0  0  0  0  0  0  0  0999 V2000
   26.8850    6.9010   -9.0640 C   0  0  0  0  0  0  0  0  0  0  0  0
   27.9520    7.4620   -9.7540 N   0  0  0  0  0  0  0  0  0  0  0  0
   25.7990    7.6900   -8.7040 N   0  0  0  0  0  0  0  0  0  0  0  0
   25.7740    8.9740   -9.0360 C   0  0  0  0  0  0  0  0  0  0  0  0
   26.7390    9.7420   -9.6780 C   0  0  0  0  0  0  0  0  0  0  0  0
   27.9320    8.8120  -10.0890 C   0  0  0  0  0  0  0  0  0  0  0  0
   24.6080    9.5710   -8.5730 N   0  0  0  0  0  0  0  0  0  0  0  0
   24.4070   10.9340   -8.7500 C   0  0  0  0  0  0  0  0  0  0  0  0
   25.3710   11.7010   -9.3910 N   0  0  0  0  0  0  0  0  0  0  0  0
   26.5380   11.1190   -9.8530 C   0  0  0  0  0  0  0  0  0  0  0  0
   27.5230   11.8940  -10.5390 C   0  0  0  0  0  0  0  0  0  0  0  0
   27.8150   11.4380  -11.8200 C   0  0  0  0  0  0  0  0  0  0  0  0
   28.2890   12.9040   -9.9700 C   0  0  0  0  0  0  0  0  0  0  0  0
   29.3480   13.4570  -10.6800 C   0  0  0  0  0  0  0  0  0  0  0  0
   29.6410   13.0020  -11.9600 C   0  0  0  0  0  0  0  0  0  0  0  0
   28.8740   11.9920  -12.5300 C   0  0  0  0  0  0  0  0  0  0  0  0
   30.6970   13.6840  -12.4390 N   0  0  0  0  0  0  0  0  0  0  0  0
   31.0470   14.5540  -11.4480 O   0  0  0  0  0  0  0  0  0  0  0  0
   30.2730   14.4400  -10.4400 C   0  0  0  0  0  0  0  0  0  0  0  0
   27.9710   13.4000   -8.5810 C   0  0  1  0  0  0  0  0  0  0  0  0
   26.8996    5.8326   -8.8026 H   0  0  0  0  0  0  0  0  0  0  0  0
   28.7735    9.2370  -10.6558 H   0  0  0  0  0  0  0  0  0  0  0  0
   23.4839   11.4060   -8.3823 H   0  0  0  0  0  0  0  0  0  0  0  0
   27.2082   10.6392  -12.2713 H   0  0  0  0  0  0  0  0  0  0  0  0
   29.1053   11.6312  -13.5431 H   0  0  0  0  0  0  0  0  0  0  0  0
   30.3380   15.0387   -9.5195 H   0  0  0  0  0  0  0  0  0  0  0  0
   28.4090   12.7168   -7.8385 H   0  0  0  0  0  0  0  0  0  0  0  0
   28.3922   14.4072   -8.4459 H   0  0  0  0  0  0  0  0  0  0  0  0
   26.8800   13.4377   -8.4459 H   0  0  0  0  0  0  0  0  0  0  0  0
  1  2  2  0
  1  3  1  0
  2  6  1  0
  3  4  2  0
  4  5  1  0
  4  7  1  0
  5  6  2  0
  5 10  1  0
  7  8  2  0
  8  9  1  0
  9 10  2  0
 10 11  1  0
 11 12  1  0
 11 13  2  0
 12 16  2  0
 13 14  1  0
 13 20  1  0
 14 15  1  0
 14 19  2  0
 15 16  1  0
 15 17  2  0
 17 18  1  0
 18 19  1  0
  1 21  1  0
  6 22  1  0
  8 23  1  0
 12 24  1  0
 16 25  1  0
 19 26  1  0
 20 27  1  1
 20 28  1  0
 20 29  1  0
M  END
>  <Pose ID>  (171)
13

>  <Score>  (171)
-6.57342529296875

>  <smiles>  (171)
Cc1c(-c2ncnc3ncncc23)ccc2nocc12

$$$$

     RDKit          3D

 38 41  0  0  0  0  0  0  0  0999 V2000
   27.9220    7.9270  -10.3680 C   0  0  0  0  0  0  0  0  0  0  0  0
   28.7800    7.1290  -11.1140 C   0  0  0  0  0  0  0  0  0  0  0  0
   29.6770    7.7120  -12.0000 N   0  0  0  0  0  0  0  0  0  0  0  0
   29.7180    9.0940  -12.1400 C   0  0  0  0  0  0  0  0  0  0  0  0
   27.0500    7.1640   -9.4800 O   0  0  0  0  0  0  0  0  0  0  0  0
   28.8580    9.8930  -11.3950 C   0  0  0  0  0  0  0  0  0  0  0  0
   27.9620    9.3090  -10.5060 C   0  0  0  0  0  0  0  0  0  0  0  0
   30.4860    9.8800  -12.9190 N   0  0  0  0  0  0  0  0  0  0  0  0
   30.1390   11.1940  -12.7010 C   0  0  0  0  0  0  0  0  0  0  0  0
   29.1180   11.0330  -11.7400 C   0  0  0  0  0  0  0  0  0  0  0  0
   26.3150    7.7260   -8.4280 C   0  0  0  0  0  0  0  0  0  0  0  0
   25.6230    8.8940   -8.6970 N   0  0  0  0  0  0  0  0  0  0  0  0
   24.9960    9.2940   -7.5320 N   0  0  0  0  0  0  0  0  0  0  0  0
   25.2740    8.3990   -6.5720 C   0  0  0  0  0  0  0  0  0  0  0  0
   26.0520    7.4470   -7.0980 C   0  0  0  0  0  0  0  0  0  0  0  0
   24.3150   10.3060   -7.5100 C   0  0  0  0  0  0  0  0  0  0  0  0
   23.6390   10.8320   -6.4150 C   0  0  0  0  0  0  0  0  0  0  0  0
   24.2990   10.9810   -8.7250 C   0  0  0  0  0  0  0  0  0  0  0  0
   23.6100   12.1820   -8.8450 C   0  0  0  0  0  0  0  0  0  0  0  0
   22.9340   12.7070   -7.7490 N   0  0  0  0  0  0  0  0  0  0  0  0
   22.9340   12.0780   -6.5270 C   0  0  0  0  0  0  0  0  0  0  0  0
   28.3820   12.2180  -11.1660 C   0  0  1  0  0  0  0  0  0  0  0  0
   28.2260   13.3210  -12.1810 C   0  0  1  0  0  0  0  0  0  0  0  0
   28.7491    6.0350  -11.0031 H   0  0  0  0  0  0  0  0  0  0  0  0
   30.3122    7.1196  -12.5536 H   0  0  0  0  0  0  0  0  0  0  0  0
   27.2852    9.9410   -9.9123 H   0  0  0  0  0  0  0  0  0  0  0  0
   30.5442   12.1127  -13.1502 H   0  0  0  0  0  0  0  0  0  0  0  0
   24.9222    8.4411   -5.5306 H   0  0  0  0  0  0  0  0  0  0  0  0
   26.4285    6.5691   -6.5526 H   0  0  0  0  0  0  0  0  0  0  0  0
   23.6442   10.2907   -5.4574 H   0  0  0  0  0  0  0  0  0  0  0  0
   24.8321   10.5643   -9.5922 H   0  0  0  0  0  0  0  0  0  0  0  0
   23.5994   12.7169   -9.8062 H   0  0  0  0  0  0  0  0  0  0  0  0
   22.4112   12.5146   -5.6633 H   0  0  0  0  0  0  0  0  0  0  0  0
   27.3842   11.8927  -10.8366 H   0  0  0  0  0  0  0  0  0  0  0  0
   28.9674   12.6093  -10.3209 H   0  0  0  0  0  0  0  0  0  0  0  0
   28.0902   14.2810  -11.6613 H   0  0  0  0  0  0  0  0  0  0  0  0
   29.1262   13.3693  -12.8113 H   0  0  0  0  0  0  0  0  0  0  0  0
   27.3477   13.1178  -12.8113 H   0  0  0  0  0  0  0  0  0  0  0  0
  1  2  2  0
  1  7  1  0
  1  5  1  0
  2  3  1  0
  3  4  1  0
  4  8  2  0
  4  6  1  0
  6 10  1  0
  6  7  2  0
  8  9  1  0
  9 10  2  0
 10 22  1  0
 22 23  1  0
  5 11  1  0
 11 12  2  0
 11 15  1  0
 12 13  1  0
 13 16  1  0
 13 14  1  0
 14 15  2  0
 16 18  1  0
 16 17  2  0
 17 21  1  0
 18 19  2  0
 19 20  1  0
 20 21  2  0
  2 24  1  0
  3 25  1  0
  7 26  1  0
  9 27  1  0
 14 28  1  0
 15 29  1  0
 17 30  1  0
 18 31  1  0
 19 32  1  0
 21 33  1  0
 22 34  1  1
 22 35  1  0
 23 36  1  1
 23 37  1  0
 23 38  1  0
M  END
>  <Pose ID>  (172)
429

>  <Score>  (172)
-6.55582857131958

>  <smiles>  (172)
CCc1cnc2[nH]cc(Oc3ccn(-c4ccncc4)n3)cc1-2

$$$$

     RDKit          3D

 36 39  0  0  0  0  0  0  0  0999 V2000
   26.9880    8.2440   -9.8590 C   0  0  0  0  0  0  0  0  0  0  0  0
   27.6570    7.1900  -10.4700 C   0  0  0  0  0  0  0  0  0  0  0  0
   28.6940    7.4480  -11.3580 N   0  0  0  0  0  0  0  0  0  0  0  0
   29.0630    8.7580  -11.6350 C   0  0  0  0  0  0  0  0  0  0  0  0
   25.9320    7.8060   -8.9490 O   0  0  0  0  0  0  0  0  0  0  0  0
   28.3920    9.8140  -11.0230 C   0  0  0  0  0  0  0  0  0  0  0  0
   27.3560    9.5530  -10.1350 C   0  0  0  0  0  0  0  0  0  0  0  0
   30.0180    9.2540  -12.4450 N   0  0  0  0  0  0  0  0  0  0  0  0
   29.9830   10.6270  -12.3800 C   0  0  0  0  0  0  0  0  0  0  0  0
   28.9240   10.8160  -11.4680 C   0  0  0  0  0  0  0  0  0  0  0  0
   25.3180    8.6350   -8.0030 C   0  0  0  0  0  0  0  0  0  0  0  0
   24.9270    9.8950   -8.4280 N   0  0  0  0  0  0  0  0  0  0  0  0
   24.3780   10.5550   -7.3460 N   0  0  0  0  0  0  0  0  0  0  0  0
   24.4060    9.7350   -6.2870 C   0  0  0  0  0  0  0  0  0  0  0  0
   24.9530    8.5770   -6.6680 C   0  0  0  0  0  0  0  0  0  0  0  0
   23.9260   11.7220   -7.3690 C   0  0  0  0  0  0  0  0  0  0  0  0
   23.3210   12.3920   -6.3110 N   0  0  0  0  0  0  0  0  0  0  0  0
   24.0700   12.3520   -8.5990 C   0  0  0  0  0  0  0  0  0  0  0  0
   23.6090   13.6510   -8.7730 C   0  0  0  0  0  0  0  0  0  0  0  0
   23.0060   14.3210   -7.7160 C   0  0  0  0  0  0  0  0  0  0  0  0
   22.8770   13.7560   -6.5500 C   0  0  0  0  0  0  0  0  0  0  0  0
   22.3640   14.4010   -5.6180 O   0  0  0  0  0  0  0  0  0  0  0  0
   28.4710   12.1960  -11.0600 C   0  0  1  0  0  0  0  0  0  0  0  0
   27.3657    6.1522  -10.2507 H   0  0  0  0  0  0  0  0  0  0  0  0
   29.1895    6.6671  -11.8113 H   0  0  0  0  0  0  0  0  0  0  0  0
   26.8263   10.3860   -9.6496 H   0  0  0  0  0  0  0  0  0  0  0  0
   30.6075   11.3712  -12.8960 H   0  0  0  0  0  0  0  0  0  0  0  0
   24.0413    9.9740   -5.2771 H   0  0  0  0  0  0  0  0  0  0  0  0
   25.0934    7.7029   -6.0151 H   0  0  0  0  0  0  0  0  0  0  0  0
   23.1925   11.9400   -5.3944 H   0  0  0  0  0  0  0  0  0  0  0  0
   24.5492   11.8220   -9.4354 H   0  0  0  0  0  0  0  0  0  0  0  0
   23.7214   14.1488   -9.7474 H   0  0  0  0  0  0  0  0  0  0  0  0
   22.6318   15.3444   -7.8663 H   0  0  0  0  0  0  0  0  0  0  0  0
   28.4484   12.2649   -9.9624 H   0  0  0  0  0  0  0  0  0  0  0  0
   29.1705   12.9448  -11.4601 H   0  0  0  0  0  0  0  0  0  0  0  0
   27.4638   12.3845  -11.4601 H   0  0  0  0  0  0  0  0  0  0  0  0
 11  5  1  0
 11 12  2  0
 11 15  1  0
 12 13  1  0
 13 16  1  0
 13 14  1  0
 14 15  2  0
 16 18  2  0
 16 17  1  0
 17 21  1  0
 18 19  1  0
 19 20  2  0
 20 21  1  0
 21 22  2  0
  5  1  1  0
  1  2  2  0
  1  7  1  0
  2  3  1  0
  3  4  1  0
  4  8  2  0
  4  6  1  0
  6 10  1  0
  6  7  2  0
  8  9  1  0
  9 10  2  0
 10 23  1  0
  2 24  1  0
  3 25  1  0
  7 26  1  0
  9 27  1  0
 14 28  1  0
 15 29  1  0
 17 30  1  0
 18 31  1  0
 19 32  1  0
 20 33  1  0
 23 34  1  1
 23 35  1  0
 23 36  1  0
M  END
>  <Pose ID>  (173)
238

>  <Score>  (173)
-6.551673412322998

>  <smiles>  (173)
Cc1cnc2[nH]cc(Oc3ccn(-c4cccc(=O)[nH]4)n3)cc1-2

$$$$

     RDKit          3D

 33 35  0  0  0  0  0  0  0  0999 V2000
   26.7600    8.9390  -10.3690 C   0  0  0  0  0  0  0  0  0  0  0  0
   27.3980    7.7170  -10.1790 C   0  0  0  0  0  0  0  0  0  0  0  0
   28.6420    7.4850  -10.7550 N   0  0  0  0  0  0  0  0  0  0  0  0
   25.5550    9.4850   -9.9440 N   0  0  0  0  0  0  0  0  0  0  0  0
   29.2470    8.4730  -11.5270 C   0  0  0  0  0  0  0  0  0  0  0  0
   28.6080    9.6920  -11.7190 C   0  0  0  0  0  0  0  0  0  0  0  0
   27.3650    9.9250  -11.1410 C   0  0  0  0  0  0  0  0  0  0  0  0
   30.4230    8.4840  -12.1780 N   0  0  0  0  0  0  0  0  0  0  0  0
   30.5720    9.7000  -12.8030 C   0  0  0  0  0  0  0  0  0  0  0  0
   29.3640   10.3280  -12.4310 C   0  0  0  0  0  0  0  0  0  0  0  0
   25.2240    9.8380   -8.5430 C   0  0  0  0  0  0  0  0  0  0  0  0
   24.0400   10.3690   -8.0630 N   0  0  0  0  0  0  0  0  0  0  0  0
   23.9070   10.6890   -6.7170 C   0  0  0  0  0  0  0  0  0  0  0  0
   24.9610   10.4390   -5.8440 C   0  0  0  0  0  0  0  0  0  0  0  0
   26.1460    9.8920   -6.3200 C   0  0  0  0  0  0  0  0  0  0  0  0
   26.2760    9.5900   -7.6700 N   0  0  0  0  0  0  0  0  0  0  0  0
   27.0870    9.6720   -5.5390 O   0  0  0  0  0  0  0  0  0  0  0  0
   26.7320   11.1330  -11.3340 O   0  0  0  0  0  0  0  0  0  0  0  0
   27.3960   12.1450  -10.5890 C   0  0  1  0  0  0  0  0  0  0  0  0
   26.8130   12.4050   -9.1930 C   0  0  1  0  0  0  0  0  0  0  0  0
   26.9180    6.9344   -9.5730 H   0  0  0  0  0  0  0  0  0  0  0  0
   29.1160    6.5820  -10.6105 H   0  0  0  0  0  0  0  0  0  0  0  0
   24.8345    9.6582  -10.6594 H   0  0  0  0  0  0  0  0  0  0  0  0
   31.4007   10.0775  -13.4201 H   0  0  0  0  0  0  0  0  0  0  0  0
   29.1167   11.3453  -12.7687 H   0  0  0  0  0  0  0  0  0  0  0  0
   22.9741   11.1372   -6.3443 H   0  0  0  0  0  0  0  0  0  0  0  0
   24.8559   10.6749   -4.7748 H   0  0  0  0  0  0  0  0  0  0  0  0
   27.1530    9.1819   -8.0239 H   0  0  0  0  0  0  0  0  0  0  0  0
   28.4483   11.8475  -10.4702 H   0  0  0  0  0  0  0  0  0  0  0  0
   27.2700   13.0793  -11.1557 H   0  0  0  0  0  0  0  0  0  0  0  0
   27.5351   12.0830   -8.4283 H   0  0  0  0  0  0  0  0  0  0  0  0
   26.6089   13.4795   -9.0752 H   0  0  0  0  0  0  0  0  0  0  0  0
   25.8772   11.8389   -9.0752 H   0  0  0  0  0  0  0  0  0  0  0  0
  1  7  1  0
  1  2  2  0
  1  4  1  0
  2  3  1  0
  3  5  1  0
  5  8  2  0
  5  6  1  0
  6 10  1  0
  6  7  2  0
  7 18  1  0
  8  9  1  0
  9 10  2  0
  4 11  1  0
 11 12  2  0
 11 16  1  0
 12 13  1  0
 13 14  2  0
 14 15  1  0
 15 16  1  0
 15 17  2  0
 18 19  1  0
 19 20  1  0
  2 21  1  0
  3 22  1  0
  4 23  1  0
  9 24  1  0
 10 25  1  0
 13 26  1  0
 14 27  1  0
 16 28  1  0
 19 29  1  1
 19 30  1  0
 20 31  1  1
 20 32  1  0
 20 33  1  0
M  END
>  <Pose ID>  (174)
28

>  <Score>  (174)
-6.5441365242004395

>  <smiles>  (174)
CCOc1c(Nc2nccc(=O)[nH]2)c[nH]c2nccc1-2

$$$$

     RDKit          3D

 40 43  0  0  0  0  0  0  0  0999 V2000
   27.3550    7.9380  -10.1690 C   0  0  0  0  0  0  0  0  0  0  0  0
   28.4750    7.1810  -10.4800 C   0  0  0  0  0  0  0  0  0  0  0  0
   29.4570    7.7020  -11.3130 N   0  0  0  0  0  0  0  0  0  0  0  0
   26.5610    7.2330   -9.3470 N   0  0  0  0  0  0  0  0  0  0  0  0
   29.3180    8.9830  -11.8340 C   0  0  0  0  0  0  0  0  0  0  0  0
   28.1960    9.7390  -11.5220 C   0  0  0  0  0  0  0  0  0  0  0  0
   27.2150    9.2210  -10.6900 C   0  0  0  0  0  0  0  0  0  0  0  0
   30.1180    9.6930  -12.6490 N   0  0  0  0  0  0  0  0  0  0  0  0
   29.5380   10.9180  -12.8810 C   0  0  0  0  0  0  0  0  0  0  0  0
   28.3530   10.7880  -12.1260 C   0  0  0  0  0  0  0  0  0  0  0  0
   25.9650    7.7870   -8.1740 C   0  0  0  0  0  0  0  0  0  0  0  0
   25.3330    6.9260   -7.2860 N   0  0  0  0  0  0  0  0  0  0  0  0
   24.6390    7.4380   -6.1950 C   0  0  0  0  0  0  0  0  0  0  0  0
   24.5790    8.8110   -5.9940 C   0  0  0  0  0  0  0  0  0  0  0  0
   25.2090    9.6730   -6.8830 C   0  0  0  0  0  0  0  0  0  0  0  0
   25.9280    9.1570   -7.9580 C   0  0  0  0  0  0  0  0  0  0  0  0
   23.9320    6.7930   -5.1750 C   0  0  0  0  0  0  0  0  0  0  0  0
   23.5730    7.7840   -4.2900 N   0  0  0  0  0  0  0  0  0  0  0  0
   23.9450    8.9690   -4.6510 C   0  0  0  0  0  0  0  0  0  0  0  0
   25.1150   11.1670   -6.6840 C   0  0  1  0  0  0  0  0  0  0  0  0
   23.7900   10.1410   -3.9410 O   0  0  0  0  0  0  0  0  0  0  0  0
   22.4560   10.5240   -4.0000 C   0  0  1  0  0  0  0  0  0  0  0  0
   27.3280   11.8930  -12.0680 C   0  0  1  0  0  0  0  0  0  0  0  0
   28.5856    6.1676  -10.0668 H   0  0  0  0  0  0  0  0  0  0  0  0
   30.2879    7.1391  -11.5445 H   0  0  0  0  0  0  0  0  0  0  0  0
   26.3731    6.2459   -9.5735 H   0  0  0  0  0  0  0  0  0  0  0  0
   26.3281    9.8228  -10.4423 H   0  0  0  0  0  0  0  0  0  0  0  0
   29.8974   11.7633  -13.4862 H   0  0  0  0  0  0  0  0  0  0  0  0
   25.3784    5.9079   -7.4356 H   0  0  0  0  0  0  0  0  0  0  0  0
   26.4666    9.8355   -8.6359 H   0  0  0  0  0  0  0  0  0  0  0  0
   23.7095    5.7186   -5.0966 H   0  0  0  0  0  0  0  0  0  0  0  0
   25.1008   11.3934   -5.6076 H   0  0  0  0  0  0  0  0  0  0  0  0
   25.9843   11.6543   -7.1497 H   0  0  0  0  0  0  0  0  0  0  0  0
   24.1915   11.5416   -7.1497 H   0  0  0  0  0  0  0  0  0  0  0  0
   22.0616   10.6372   -2.9794 H   0  0  0  0  0  0  0  0  0  0  0  0
   22.3729   11.4823   -4.5337 H   0  0  0  0  0  0  0  0  0  0  0  0
   21.8772    9.7557   -4.5337 H   0  0  0  0  0  0  0  0  0  0  0  0
   27.1059   12.1324  -11.0176 H   0  0  0  0  0  0  0  0  0  0  0  0
   27.7237   12.7870  -12.5721 H   0  0  0  0  0  0  0  0  0  0  0  0
   26.4068   11.5654  -12.5721 H   0  0  0  0  0  0  0  0  0  0  0  0
  4  1  1  0
  4 11  1  0
  1  7  1  0
  1  2  2  0
  2  3  1  0
  3  5  1  0
  5  8  2  0
  5  6  1  0
  6 10  1  0
  6  7  2  0
  8  9  1  0
  9 10  2  0
 10 23  1  0
 11 16  2  0
 11 12  1  0
 12 13  1  0
 13 14  1  0
 13 17  2  0
 14 15  2  0
 14 19  1  0
 15 16  1  0
 15 20  1  0
 17 18  1  0
 18 19  2  0
 19 21  1  0
 21 22  1  0
  2 24  1  0
  3 25  1  0
  4 26  1  0
  7 27  1  0
  9 28  1  0
 12 29  1  0
 16 30  1  0
 17 31  1  0
 20 32  1  1
 20 33  1  0
 20 34  1  0
 22 35  1  1
 22 36  1  0
 22 37  1  0
 23 38  1  1
 23 39  1  0
 23 40  1  0
M  END
>  <Pose ID>  (175)
85

>  <Score>  (175)
-6.543785095214844

>  <smiles>  (175)
COc1ncc2[nH]c(Nc3c[nH]c4ncc(C)c-4c3)cc(C)c1-2

$$$$

     RDKit          3D

 35 38  0  0  0  0  0  0  0  0999 V2000
   27.2910    7.8680  -10.2020 C   0  0  0  0  0  0  0  0  0  0  0  0
   28.4200    7.1360  -10.5340 C   0  0  0  0  0  0  0  0  0  0  0  0
   29.4040    7.7030  -11.3350 N   0  0  0  0  0  0  0  0  0  0  0  0
   26.4940    7.1220   -9.4210 N   0  0  0  0  0  0  0  0  0  0  0  0
   29.2600    9.0050  -11.7990 C   0  0  0  0  0  0  0  0  0  0  0  0
   28.1280    9.7380  -11.4650 C   0  0  0  0  0  0  0  0  0  0  0  0
   27.1440    9.1730  -10.6670 C   0  0  0  0  0  0  0  0  0  0  0  0
   30.0620    9.7570  -12.5700 N   0  0  0  0  0  0  0  0  0  0  0  0
   29.4830   10.9500  -12.7410 C   0  0  0  0  0  0  0  0  0  0  0  0
   28.2680   10.9300  -12.0660 C   0  0  0  0  0  0  0  0  0  0  0  0
   25.8820    7.6170   -8.2300 C   0  0  0  0  0  0  0  0  0  0  0  0
   25.2480    6.7110   -7.3870 N   0  0  0  0  0  0  0  0  0  0  0  0
   24.5380    7.1660   -6.2830 C   0  0  0  0  0  0  0  0  0  0  0  0
   24.4630    8.5310   -6.0200 C   0  0  0  0  0  0  0  0  0  0  0  0
   25.0970    9.4380   -6.8640 C   0  0  0  0  0  0  0  0  0  0  0  0
   25.8300    8.9760   -7.9520 C   0  0  0  0  0  0  0  0  0  0  0  0
   23.9730    6.3550   -5.5290 O   0  0  0  0  0  0  0  0  0  0  0  0
   29.8700   12.0870  -13.4410 C   0  0  0  0  0  0  0  0  0  0  0  0
   29.0420   13.2040  -13.4660 N   0  0  0  0  0  0  0  0  0  0  0  0
   27.8280   13.1830  -12.7910 C   0  0  0  0  0  0  0  0  0  0  0  0
   27.4400   12.0470  -12.0910 C   0  0  0  0  0  0  0  0  0  0  0  0
   24.9890   10.9190   -6.5990 C   0  0  1  0  0  0  0  0  0  0  0  0
   28.5372    6.1068  -10.1637 H   0  0  0  0  0  0  0  0  0  0  0  0
   30.2411    7.1575  -11.5851 H   0  0  0  0  0  0  0  0  0  0  0  0
   26.3153    6.1451   -9.6942 H   0  0  0  0  0  0  0  0  0  0  0  0
   26.2488    9.7546  -10.4017 H   0  0  0  0  0  0  0  0  0  0  0  0
   25.3049    5.7011   -7.5814 H   0  0  0  0  0  0  0  0  0  0  0  0
   23.9027    8.8927   -5.1452 H   0  0  0  0  0  0  0  0  0  0  0  0
   26.3694    9.6887   -8.5932 H   0  0  0  0  0  0  0  0  0  0  0  0
   30.8314   12.1031  -13.9753 H   0  0  0  0  0  0  0  0  0  0  0  0
   27.1731   14.0666  -12.8106 H   0  0  0  0  0  0  0  0  0  0  0  0
   26.4785   12.0313  -11.5570 H   0  0  0  0  0  0  0  0  0  0  0  0
   24.9760   11.0973   -5.5136 H   0  0  0  0  0  0  0  0  0  0  0  0
   25.8519   11.4352   -7.0451 H   0  0  0  0  0  0  0  0  0  0  0  0
   24.0604   11.3045   -7.0451 H   0  0  0  0  0  0  0  0  0  0  0  0
  1  7  1  0
  1  2  2  0
  1  4  1  0
  2  3  1  0
  3  5  1  0
  5  8  2  0
  5  6  1  0
  6 10  1  0
  6  7  2  0
  8  9  1  0
  9 18  1  0
  9 10  2  0
 10 21  1  0
 18 19  2  0
 19 20  1  0
 20 21  2  0
  4 11  1  0
 11 16  2  0
 11 12  1  0
 12 13  1  0
 13 14  1  0
 13 17  2  0
 14 15  2  0
 15 16  1  0
 15 22  1  0
  2 23  1  0
  3 24  1  0
  4 25  1  0
  7 26  1  0
 12 27  1  0
 14 28  1  0
 16 29  1  0
 18 30  1  0
 20 31  1  0
 21 32  1  0
 22 33  1  1
 22 34  1  0
 22 35  1  0
M  END
>  <Pose ID>  (176)
114

>  <Score>  (176)
-6.536125659942627

>  <smiles>  (176)
Cc1cc(Nc2c[nH]c3nc4cnccc4c-3c2)[nH]c(=O)c1

$$$$

     RDKit          3D

 33 36  0  0  0  0  0  0  0  0999 V2000
   27.2680    7.9740  -10.1960 C   0  0  0  0  0  0  0  0  0  0  0  0
   28.2960    7.1730  -10.6670 C   0  0  0  0  0  0  0  0  0  0  0  0
   29.2800    7.7150  -11.4840 N   0  0  0  0  0  0  0  0  0  0  0  0
   26.4510    7.2380   -9.4270 N   0  0  0  0  0  0  0  0  0  0  0  0
   29.2360    9.0610  -11.8280 C   0  0  0  0  0  0  0  0  0  0  0  0
   28.2050    9.8630  -11.3550 C   0  0  0  0  0  0  0  0  0  0  0  0
   27.2210    9.3230  -10.5390 C   0  0  0  0  0  0  0  0  0  0  0  0
   30.0600    9.8030  -12.5880 N   0  0  0  0  0  0  0  0  0  0  0  0
   29.5820   11.0930  -12.6270 C   0  0  0  0  0  0  0  0  0  0  0  0
   28.4300   10.9650  -11.8260 C   0  0  0  0  0  0  0  0  0  0  0  0
   25.9640    7.6780   -8.1590 C   0  0  0  0  0  0  0  0  0  0  0  0
   25.2980    6.7630   -7.3520 N   0  0  0  0  0  0  0  0  0  0  0  0
   24.7070    7.1820   -6.1660 C   0  0  0  0  0  0  0  0  0  0  0  0
   24.7840    8.5170   -5.7870 C   0  0  0  0  0  0  0  0  0  0  0  0
   25.4490    9.4310   -6.5940 C   0  0  0  0  0  0  0  0  0  0  0  0
   26.0630    9.0050   -7.7640 C   0  0  0  0  0  0  0  0  0  0  0  0
   24.1110    6.3620   -5.4440 O   0  0  0  0  0  0  0  0  0  0  0  0
   25.6400   10.8170   -6.4500 C   0  0  0  0  0  0  0  0  0  0  0  0
   25.0980   11.7830   -7.2340 O   0  0  0  0  0  0  0  0  0  0  0  0
   25.5750   12.9310   -6.7390 C   0  0  0  0  0  0  0  0  0  0  0  0
   26.3620   11.4090   -5.4270 N   0  0  0  0  0  0  0  0  0  0  0  0
   26.3610   12.7370   -5.6000 C   0  0  0  0  0  0  0  0  0  0  0  0
   28.3328    6.1081  -10.3939 H   0  0  0  0  0  0  0  0  0  0  0  0
   30.0430    7.1189  -11.8352 H   0  0  0  0  0  0  0  0  0  0  0  0
   26.1610    6.3104   -9.7681 H   0  0  0  0  0  0  0  0  0  0  0  0
   26.4057    9.9590  -10.1639 H   0  0  0  0  0  0  0  0  0  0  0  0
   29.9867   11.9776  -13.1405 H   0  0  0  0  0  0  0  0  0  0  0  0
   27.7644   11.8196  -11.6344 H   0  0  0  0  0  0  0  0  0  0  0  0
   25.2424    5.7737   -7.6332 H   0  0  0  0  0  0  0  0  0  0  0  0
   24.3181    8.8497   -4.8477 H   0  0  0  0  0  0  0  0  0  0  0  0
   26.6289    9.7202   -8.3790 H   0  0  0  0  0  0  0  0  0  0  0  0
   25.3710   13.9180   -7.1798 H   0  0  0  0  0  0  0  0  0  0  0  0
   26.8633   13.4996   -4.9867 H   0  0  0  0  0  0  0  0  0  0  0  0
 11  4  1  0
 11 16  2  0
 11 12  1  0
 12 13  1  0
 13 14  1  0
 13 17  2  0
 14 15  2  0
 15 16  1  0
 15 18  1  0
 18 19  1  0
 18 21  2  0
 19 20  1  0
 20 22  2  0
 21 22  1  0
  4  1  1  0
  1  2  2  0
  1  7  1  0
  2  3  1  0
  3  5  1  0
  5  8  2  0
  5  6  1  0
  6 10  1  0
  6  7  2  0
  8  9  1  0
  9 10  2  0
  2 23  1  0
  3 24  1  0
  4 25  1  0
  7 26  1  0
  9 27  1  0
 10 28  1  0
 12 29  1  0
 14 30  1  0
 16 31  1  0
 20 32  1  0
 22 33  1  0
M  END
>  <Pose ID>  (177)
136

>  <Score>  (177)
-6.5330071449279785

>  <smiles>  (177)
O=c1cc(-c2ncco2)cc(Nc2c[nH]c3nccc-3c2)[nH]1

$$$$

     RDKit          3D

 31 34  0  0  0  0  0  0  0  0999 V2000
   27.1780    8.2330   -9.5080 C   0  0  0  0  0  0  0  0  0  0  0  0
   27.0690    7.0480   -8.7870 N   0  0  0  0  0  0  0  0  0  0  0  0
   26.1680    6.9580   -7.7320 C   0  0  0  0  0  0  0  0  0  0  0  0
   25.3770    8.0530   -7.3970 C   0  0  0  0  0  0  0  0  0  0  0  0
   25.4860    9.2360   -8.1190 N   0  0  0  0  0  0  0  0  0  0  0  0
   26.3890    9.3260   -9.1730 C   0  0  0  0  0  0  0  0  0  0  0  0
   24.4280    8.1400   -6.3850 C   0  0  0  0  0  0  0  0  0  0  0  0
   24.1250    7.0540   -5.5730 C   0  0  0  0  0  0  0  0  0  0  0  0
   23.7560    9.3450   -6.2140 C   0  0  0  0  0  0  0  0  0  0  0  0
   23.1500    7.1690   -4.5930 N   0  0  0  0  0  0  0  0  0  0  0  0
   22.4760    8.3740   -4.4220 C   0  0  0  0  0  0  0  0  0  0  0  0
   24.4040   10.1490   -7.3630 N   0  0  0  0  0  0  0  0  0  0  0  0
   22.7780    9.4610   -5.2330 C   0  0  0  0  0  0  0  0  0  0  0  0
   28.0900    8.3220  -10.5740 C   0  0  0  0  0  0  0  0  0  0  0  0
   29.1620    9.2080  -10.5750 O   0  0  0  0  0  0  0  0  0  0  0  0
   28.0800    7.6000  -11.7330 N   0  0  0  0  0  0  0  0  0  0  0  0
   29.7630    8.9700  -11.7880 C   0  0  0  0  0  0  0  0  0  0  0  0
   29.1090    7.9890  -12.5180 C   0  0  0  0  0  0  0  0  0  0  0  0
   22.0470   10.7680   -5.0480 C   0  0  1  0  0  0  0  0  0  0  0  0
   21.6940   11.0340   -3.6120 C   0  0  1  0  0  0  0  0  0  0  0  0
   26.0803    6.0213   -7.1620 H   0  0  0  0  0  0  0  0  0  0  0  0
   26.4784   10.2633   -9.7417 H   0  0  0  0  0  0  0  0  0  0  0  0
   24.6590    6.1018   -5.7075 H   0  0  0  0  0  0  0  0  0  0  0  0
   21.7036    8.4662   -3.6443 H   0  0  0  0  0  0  0  0  0  0  0  0
   30.6614    9.4981  -12.1400 H   0  0  0  0  0  0  0  0  0  0  0  0
   29.3705    7.6104  -13.5171 H   0  0  0  0  0  0  0  0  0  0  0  0
   22.6885   11.5849   -5.4103 H   0  0  0  0  0  0  0  0  0  0  0  0
   21.1073   10.7077   -5.6166 H   0  0  0  0  0  0  0  0  0  0  0  0
   22.3995   10.5024   -2.9565 H   0  0  0  0  0  0  0  0  0  0  0  0
   21.7526   12.1145   -3.4141 H   0  0  0  0  0  0  0  0  0  0  0  0
   20.6715   10.6799   -3.4141 H   0  0  0  0  0  0  0  0  0  0  0  0
  1 14  1  0
  1  6  2  0
  1  2  1  0
  2  3  2  0
  3  4  1  0
  4  5  1  0
  4  7  2  0
  5  6  1  0
  5 12  1  0
  7  9  1  0
  7  8  1  0
  8 10  2  0
  9 12  2  0
  9 13  1  0
 10 11  1  0
 11 13  2  0
 13 19  1  0
 14 16  2  0
 14 15  1  0
 15 17  1  0
 16 18  1  0
 17 18  2  0
 19 20  1  0
  3 21  1  0
  6 22  1  0
  8 23  1  0
 11 24  1  0
 17 25  1  0
 18 26  1  0
 19 27  1  6
 19 28  1  0
 20 29  1  1
 20 30  1  0
 20 31  1  0
M  END
>  <Pose ID>  (178)
58

>  <Score>  (178)
-6.5248541831970215

>  <smiles>  (178)
CCc1cncc2c1nn1cc(-c3ncco3)ncc21

$$$$

     RDKit          3D

 34 37  0  0  0  0  0  0  0  0999 V2000
   27.2020    8.6450  -10.2930 C   0  0  0  0  0  0  0  0  0  0  0  0
   28.0250    7.5930  -10.6730 C   0  0  0  0  0  0  0  0  0  0  0  0
   29.1320    7.8310  -11.4810 N   0  0  0  0  0  0  0  0  0  0  0  0
   29.4150    9.1230  -11.9080 C   0  0  0  0  0  0  0  0  0  0  0  0
   26.0910    8.2310   -9.4400 O   0  0  0  0  0  0  0  0  0  0  0  0
   28.5900   10.1760  -11.5270 C   0  0  0  0  0  0  0  0  0  0  0  0
   27.4850    9.9370  -10.7190 C   0  0  0  0  0  0  0  0  0  0  0  0
   30.4100    9.5980  -12.6810 N   0  0  0  0  0  0  0  0  0  0  0  0
   30.2820   10.8450  -12.8180 C   0  0  0  0  0  0  0  0  0  0  0  0
   29.1460   11.2560  -12.1310 C   0  0  0  0  0  0  0  0  0  0  0  0
   25.3040    9.1140   -8.6930 C   0  0  0  0  0  0  0  0  0  0  0  0
   24.8570   10.2580   -9.3340 N   0  0  0  0  0  0  0  0  0  0  0  0
   24.1290   11.0000   -8.4220 N   0  0  0  0  0  0  0  0  0  0  0  0
   24.1100   10.3390   -7.2560 C   0  0  0  0  0  0  0  0  0  0  0  0
   24.7950    9.1990   -7.4100 C   0  0  0  0  0  0  0  0  0  0  0  0
   23.5340   12.2570   -8.8000 C   0  0  1  0  0  0  0  0  0  0  0  0
   31.0460   11.7740  -13.5140 C   0  0  0  0  0  0  0  0  0  0  0  0
   30.6720   13.1120  -13.5250 C   0  0  0  0  0  0  0  0  0  0  0  0
   29.5370   13.5230  -12.8390 C   0  0  0  0  0  0  0  0  0  0  0  0
   28.7730   12.5940  -12.1410 N   0  0  0  0  0  0  0  0  0  0  0  0
   24.9860    8.1560   -6.3360 C   0  0  1  0  0  0  0  0  0  0  0  0
   27.8013    6.5705  -10.3347 H   0  0  0  0  0  0  0  0  0  0  0  0
   29.7417    7.0501  -11.7627 H   0  0  0  0  0  0  0  0  0  0  0  0
   26.8342   10.7707  -10.4166 H   0  0  0  0  0  0  0  0  0  0  0  0
   23.6167   10.6752   -6.3321 H   0  0  0  0  0  0  0  0  0  0  0  0
   23.2662   12.8227   -7.8954 H   0  0  0  0  0  0  0  0  0  0  0  0
   24.2526   12.8381   -9.3966 H   0  0  0  0  0  0  0  0  0  0  0  0
   22.6290   12.0696   -9.3966 H   0  0  0  0  0  0  0  0  0  0  0  0
   31.9467   11.4501  -14.0561 H   0  0  0  0  0  0  0  0  0  0  0  0
   31.2758   13.8466  -14.0779 H   0  0  0  0  0  0  0  0  0  0  0  0
   29.2423   14.5828  -12.8476 H   0  0  0  0  0  0  0  0  0  0  0  0
   24.8995    8.6285   -5.3464 H   0  0  0  0  0  0  0  0  0  0  0  0
   24.2154    7.3779   -6.4394 H   0  0  0  0  0  0  0  0  0  0  0  0
   25.9823    7.7014   -6.4394 H   0  0  0  0  0  0  0  0  0  0  0  0
  1  7  1  0
  1  2  2  0
  1  5  1  0
  2  3  1  0
  3  4  1  0
  4  8  2  0
  4  6  1  0
  6 10  1  0
  6  7  2  0
  8  9  1  0
  9 17  1  0
  9 10  2  0
 10 20  1  0
 17 18  2  0
 18 19  1  0
 19 20  2  0
  5 11  1  0
 11 12  2  0
 11 15  1  0
 12 13  1  0
 13 16  1  0
 13 14  1  0
 14 15  2  0
 15 21  1  0
  2 22  1  0
  3 23  1  0
  7 24  1  0
 14 25  1  0
 16 26  1  1
 16 27  1  0
 16 28  1  0
 17 29  1  0
 18 30  1  0
 19 31  1  0
 21 32  1  1
 21 33  1  0
 21 34  1  0
M  END
>  <Pose ID>  (179)
509

>  <Score>  (179)
-6.52392578125

>  <smiles>  (179)
Cc1cn(C)nc1Oc1c[nH]c2nc3cccnc3c-2c1

$$$$

     RDKit          3D

 28 31  0  0  0  0  0  0  0  0999 V2000
   27.2440    8.1860   -9.6380 C   0  0  0  0  0  0  0  0  0  0  0  0
   27.1040    7.0650   -8.8270 N   0  0  0  0  0  0  0  0  0  0  0  0
   26.1530    7.0550   -7.8150 C   0  0  0  0  0  0  0  0  0  0  0  0
   25.3420    8.1650   -7.6130 C   0  0  0  0  0  0  0  0  0  0  0  0
   25.4790    9.2850   -8.4240 N   0  0  0  0  0  0  0  0  0  0  0  0
   26.4330    9.2960   -9.4360 C   0  0  0  0  0  0  0  0  0  0  0  0
   24.3420    8.3280   -6.6590 C   0  0  0  0  0  0  0  0  0  0  0  0
   24.0030    7.3100   -5.7750 C   0  0  0  0  0  0  0  0  0  0  0  0
   23.6550    9.5360   -6.6220 C   0  0  0  0  0  0  0  0  0  0  0  0
   22.9780    7.4980   -4.8570 N   0  0  0  0  0  0  0  0  0  0  0  0
   22.2910    8.7060   -4.8200 C   0  0  0  0  0  0  0  0  0  0  0  0
   24.3560   10.2480   -7.8010 N   0  0  0  0  0  0  0  0  0  0  0  0
   22.6290    9.7250   -5.7030 C   0  0  0  0  0  0  0  0  0  0  0  0
   28.2060    8.1970  -10.6640 C   0  0  0  0  0  0  0  0  0  0  0  0
   29.2720    9.0880  -10.6840 O   0  0  0  0  0  0  0  0  0  0  0  0
   29.9100    8.7640  -11.8310 C   0  0  0  0  0  0  0  0  0  0  0  0
   29.2980    7.7380  -12.4890 N   0  0  0  0  0  0  0  0  0  0  0  0
   28.2140    7.3550  -11.7590 C   0  0  0  0  0  0  0  0  0  0  0  0
   21.1780    8.9120   -3.8230 C   0  0  1  0  0  0  0  0  0  0  0  0
   26.0418    6.1684   -7.1734 H   0  0  0  0  0  0  0  0  0  0  0  0
   26.5455   10.1833  -10.0764 H   0  0  0  0  0  0  0  0  0  0  0  0
   24.5473    6.3545   -5.8027 H   0  0  0  0  0  0  0  0  0  0  0  0
   22.0849   10.6806   -5.6746 H   0  0  0  0  0  0  0  0  0  0  0  0
   30.8179    9.2695  -12.1919 H   0  0  0  0  0  0  0  0  0  0  0  0
   27.5004    6.5506  -11.9908 H   0  0  0  0  0  0  0  0  0  0  0  0
   21.5815    8.8373   -2.8024 H   0  0  0  0  0  0  0  0  0  0  0  0
   20.7339    9.9076   -3.9698 H   0  0  0  0  0  0  0  0  0  0  0  0
   20.4070    8.1413   -3.9698 H   0  0  0  0  0  0  0  0  0  0  0  0
  1 14  1  0
  1  6  2  0
  1  2  1  0
  2  3  2  0
  3  4  1  0
  4  5  1  0
  4  7  2  0
  5  6  1  0
  5 12  1  0
  7  9  1  0
  7  8  1  0
  8 10  2  0
  9 12  2  0
  9 13  1  0
 10 11  1  0
 11 13  2  0
 11 19  1  0
 14 18  2  0
 14 15  1  0
 15 16  1  0
 16 17  2  0
 17 18  1  0
  3 20  1  0
  6 21  1  0
  8 22  1  0
 13 23  1  0
 16 24  1  0
 18 25  1  0
 19 26  1  1
 19 27  1  0
 19 28  1  0
M  END
>  <Pose ID>  (180)
78

>  <Score>  (180)
-6.522307872772217

>  <smiles>  (180)
Cc1cc2nn3cc(-c4cnco4)ncc3c2cn1

$$$$

     RDKit          3D

 35 38  0  0  0  0  0  0  0  0999 V2000
   28.5640   11.8940  -11.5560 C   0  0  0  0  0  0  0  0  0  0  0  0
   28.2370   10.6540  -11.0870 N   0  0  0  0  0  0  0  0  0  0  0  0
   27.1610   10.3670  -10.2540 C   0  0  0  0  0  0  0  0  0  0  0  0
   27.7330   12.9460  -11.1890 C   0  0  0  0  0  0  0  0  0  0  0  0
   27.0570    9.1010   -9.9680 N   0  0  0  0  0  0  0  0  0  0  0  0
   26.5290   12.6910  -10.2700 C   0  0  0  0  0  0  0  0  0  0  0  0
   26.3100   11.3860   -9.8470 C   0  0  0  0  0  0  0  0  0  0  0  0
   28.0040   14.2340  -11.6340 C   0  0  0  0  0  0  0  0  0  0  0  0
   29.1090   14.4710  -12.4450 N   0  0  0  0  0  0  0  0  0  0  0  0
   29.9390   13.4210  -12.8120 C   0  0  0  0  0  0  0  0  0  0  0  0
   29.6540   12.1250  -12.3800 C   0  0  0  0  0  0  0  0  0  0  0  0
   26.0430    8.6660   -9.1580 C   0  0  0  0  0  0  0  0  0  0  0  0
   27.9040    8.0320  -10.4080 N   0  0  0  0  0  0  0  0  0  0  0  0
   26.2250    7.3130   -9.0910 C   0  0  0  0  0  0  0  0  0  0  0  0
   27.3760    6.9720   -9.8520 C   0  0  0  0  0  0  0  0  0  0  0  0
   30.6110   11.2410  -12.9110 C   0  0  0  0  0  0  0  0  0  0  0  0
   31.5310   12.0170  -13.7040 C   0  0  0  0  0  0  0  0  0  0  0  0
   31.1310   13.2490  -13.5670 O   0  0  0  0  0  0  0  0  0  0  0  0
   27.1010   15.3760  -11.2370 C   0  0  1  0  0  0  0  0  0  0  0  0
   27.8250   16.1570  -10.1620 C   0  0  1  0  0  0  0  0  0  0  0  0
   27.5390   15.6490   -8.7290 C   0  0  1  0  0  0  0  0  0  0  0  0
   25.8651   13.5109   -9.9585 H   0  0  0  0  0  0  0  0  0  0  0  0
   25.4595   11.1591   -9.1873 H   0  0  0  0  0  0  0  0  0  0  0  0
   25.2607    9.2676   -8.6722 H   0  0  0  0  0  0  0  0  0  0  0  0
   25.5872    6.6061   -8.5401 H   0  0  0  0  0  0  0  0  0  0  0  0
   27.7709    5.9510   -9.9594 H   0  0  0  0  0  0  0  0  0  0  0  0
   30.6501   10.1536  -12.7500 H   0  0  0  0  0  0  0  0  0  0  0  0
   32.3831   11.6497  -14.2947 H   0  0  0  0  0  0  0  0  0  0  0  0
   26.9039   16.0216  -12.1055 H   0  0  0  0  0  0  0  0  0  0  0  0
   26.1341   15.0030  -10.8684 H   0  0  0  0  0  0  0  0  0  0  0  0
   28.9067   16.0836  -10.3476 H   0  0  0  0  0  0  0  0  0  0  0  0
   27.4609   17.1936  -10.2156 H   0  0  0  0  0  0  0  0  0  0  0  0
   27.9425   16.3657   -7.9986 H   0  0  0  0  0  0  0  0  0  0  0  0
   26.4529   15.5507   -8.5848 H   0  0  0  0  0  0  0  0  0  0  0  0
   28.0182   14.6694   -8.5848 H   0  0  0  0  0  0  0  0  0  0  0  0
  1 11  1  0
  1  4  1  0
  1  2  2  0
  2  3  1  0
  3  5  1  0
  3  7  2  0
  4  8  1  0
  4  6  2  0
  6  7  1  0
  8  9  2  0
  8 19  1  0
  9 10  1  0
 10 18  1  0
 10 11  2  0
 11 16  1  0
 16 17  2  0
 17 18  1  0
  5 13  1  0
  5 12  1  0
 12 14  2  0
 13 15  2  0
 14 15  1  0
 19 20  1  0
 20 21  1  0
  6 22  1  0
  7 23  1  0
 12 24  1  0
 14 25  1  0
 15 26  1  0
 16 27  1  0
 17 28  1  0
 19 29  1  6
 19 30  1  0
 20 31  1  6
 20 32  1  0
 21 33  1  1
 21 34  1  0
 21 35  1  0
M  END
>  <Pose ID>  (181)
99

>  <Score>  (181)
-6.521632194519043

>  <smiles>  (181)
CCCc1nc2occc2c2nc(-n3cccn3)ccc12

$$$$

     RDKit          3D

 34 37  0  0  0  0  0  0  0  0999 V2000
   27.3920    7.9220  -10.2280 C   0  0  0  0  0  0  0  0  0  0  0  0
   28.5180    7.1750  -10.5380 C   0  0  0  0  0  0  0  0  0  0  0  0
   29.5060    7.7140  -11.3520 N   0  0  0  0  0  0  0  0  0  0  0  0
   26.5910    7.2000   -9.4270 N   0  0  0  0  0  0  0  0  0  0  0  0
   29.3670    9.0030  -11.8540 C   0  0  0  0  0  0  0  0  0  0  0  0
   28.2380    9.7500  -11.5420 C   0  0  0  0  0  0  0  0  0  0  0  0
   27.2510    9.2120  -10.7290 C   0  0  0  0  0  0  0  0  0  0  0  0
   30.1750    9.7300  -12.6470 N   0  0  0  0  0  0  0  0  0  0  0  0
   29.5900   10.9560  -12.8650 C   0  0  0  0  0  0  0  0  0  0  0  0
   28.3980   10.8070  -12.1260 C   0  0  0  0  0  0  0  0  0  0  0  0
   25.9780    7.7330   -8.2530 C   0  0  0  0  0  0  0  0  0  0  0  0
   25.3410    6.8540   -7.3850 N   0  0  0  0  0  0  0  0  0  0  0  0
   24.6320    7.3440   -6.2950 C   0  0  0  0  0  0  0  0  0  0  0  0
   24.5620    8.7140   -6.0720 C   0  0  0  0  0  0  0  0  0  0  0  0
   25.1990    9.5940   -6.9390 C   0  0  0  0  0  0  0  0  0  0  0  0
   25.9340    9.0980   -8.0130 C   0  0  0  0  0  0  0  0  0  0  0  0
   23.9160    6.6790   -5.2940 C   0  0  0  0  0  0  0  0  0  0  0  0
   23.5430    7.6560   -4.3960 N   0  0  0  0  0  0  0  0  0  0  0  0
   23.9140    8.8470   -4.7340 C   0  0  0  0  0  0  0  0  0  0  0  0
   23.7450   10.0050   -4.0070 O   0  0  0  0  0  0  0  0  0  0  0  0
   24.6240   10.9600   -3.7120 C   0  0  1  0  0  0  0  0  0  0  0  0
   28.6289    6.1558  -10.1394 H   0  0  0  0  0  0  0  0  0  0  0  0
   30.3419    7.1586  -11.5838 H   0  0  0  0  0  0  0  0  0  0  0  0
   26.4106    6.2158   -9.6713 H   0  0  0  0  0  0  0  0  0  0  0  0
   26.3582    9.8047  -10.4809 H   0  0  0  0  0  0  0  0  0  0  0  0
   29.9512   11.8133  -13.4520 H   0  0  0  0  0  0  0  0  0  0  0  0
   27.6467   11.6091  -12.0791 H   0  0  0  0  0  0  0  0  0  0  0  0
   25.3945    5.8387   -7.5498 H   0  0  0  0  0  0  0  0  0  0  0  0
   25.1228   10.6794   -6.7773 H   0  0  0  0  0  0  0  0  0  0  0  0
   26.4800    9.7896   -8.6714 H   0  0  0  0  0  0  0  0  0  0  0  0
   23.6967    5.6027   -5.2357 H   0  0  0  0  0  0  0  0  0  0  0  0
   24.7105   11.0540   -2.6194 H   0  0  0  0  0  0  0  0  0  0  0  0
   25.6048   10.6994   -4.1364 H   0  0  0  0  0  0  0  0  0  0  0  0
   24.2831   11.9159   -4.1364 H   0  0  0  0  0  0  0  0  0  0  0  0
  4  1  1  0
  4 11  1  0
  1  7  1  0
  1  2  2  0
  2  3  1  0
  3  5  1  0
  5  8  2  0
  5  6  1  0
  6 10  1  0
  6  7  2  0
  8  9  1  0
  9 10  2  0
 11 16  2  0
 11 12  1  0
 12 13  1  0
 13 14  1  0
 13 17  2  0
 14 15  2  0
 14 19  1  0
 15 16  1  0
 17 18  1  0
 18 19  2  0
 19 20  1  0
 20 21  1  0
  2 22  1  0
  3 23  1  0
  4 24  1  0
  7 25  1  0
  9 26  1  0
 10 27  1  0
 12 28  1  0
 15 29  1  0
 16 30  1  0
 17 31  1  0
 21 32  1  1
 21 33  1  0
 21 34  1  0
M  END
>  <Pose ID>  (182)
63

>  <Score>  (182)
-6.519967555999756

>  <smiles>  (182)
COc1ncc2[nH]c(Nc3c[nH]c4nccc-4c3)ccc1-2

$$$$

     RDKit          3D

 34 37  0  0  0  0  0  0  0  0999 V2000
   27.3810    8.4860  -10.4570 C   0  0  0  0  0  0  0  0  0  0  0  0
   28.2240    7.4850  -10.9240 C   0  0  0  0  0  0  0  0  0  0  0  0
   29.3060    7.8070  -11.7330 N   0  0  0  0  0  0  0  0  0  0  0  0
   29.5480    9.1320  -12.0770 C   0  0  0  0  0  0  0  0  0  0  0  0
   26.2980    7.9860   -9.6130 O   0  0  0  0  0  0  0  0  0  0  0  0
   28.7040   10.1350  -11.6090 C   0  0  0  0  0  0  0  0  0  0  0  0
   27.6230    9.8110  -10.7980 C   0  0  0  0  0  0  0  0  0  0  0  0
   30.5130    9.6860  -12.8340 N   0  0  0  0  0  0  0  0  0  0  0  0
   30.3560   10.9250  -12.8850 C   0  0  0  0  0  0  0  0  0  0  0  0
   29.2480   11.2680  -12.1190 C   0  0  0  0  0  0  0  0  0  0  0  0
   25.5050    8.7920   -8.7920 C   0  0  0  0  0  0  0  0  0  0  0  0
   25.0170    9.9660   -9.3450 N   0  0  0  0  0  0  0  0  0  0  0  0
   24.2900   10.6250   -8.3690 N   0  0  0  0  0  0  0  0  0  0  0  0
   24.3110    9.8840   -7.2520 C   0  0  0  0  0  0  0  0  0  0  0  0
   25.0210    8.7770   -7.4960 C   0  0  0  0  0  0  0  0  0  0  0  0
   23.6550   11.8870   -8.6470 C   0  0  1  0  0  0  0  0  0  0  0  0
   31.0750   11.9140  -13.5480 C   0  0  0  0  0  0  0  0  0  0  0  0
   30.6850   13.2430  -13.4450 C   0  0  0  0  0  0  0  0  0  0  0  0
   29.5770   13.5860  -12.6780 N   0  0  0  0  0  0  0  0  0  0  0  0
   28.8330   12.6220  -12.0280 C   0  0  0  0  0  0  0  0  0  0  0  0
   25.2610    7.6700   -6.4990 C   0  0  1  0  0  0  0  0  0  0  0  0
   28.0341    6.4361  -10.6526 H   0  0  0  0  0  0  0  0  0  0  0  0
   29.9296    7.0635  -12.0784 H   0  0  0  0  0  0  0  0  0  0  0  0
   26.9582   10.6044  -10.4256 H   0  0  0  0  0  0  0  0  0  0  0  0
   23.8273   10.1421   -6.2984 H   0  0  0  0  0  0  0  0  0  0  0  0
   23.4033   12.3872   -7.7002 H   0  0  0  0  0  0  0  0  0  0  0  0
   24.3406   12.5226   -9.2266 H   0  0  0  0  0  0  0  0  0  0  0  0
   22.7360   11.7152   -9.2266 H   0  0  0  0  0  0  0  0  0  0  0  0
   31.9524   11.6436  -14.1538 H   0  0  0  0  0  0  0  0  0  0  0  0
   31.2530   14.0248  -13.9705 H   0  0  0  0  0  0  0  0  0  0  0  0
   27.9374   12.8975  -11.4517 H   0  0  0  0  0  0  0  0  0  0  0  0
   25.1741    8.0707   -5.4783 H   0  0  0  0  0  0  0  0  0  0  0  0
   24.5142    6.8759   -6.6460 H   0  0  0  0  0  0  0  0  0  0  0  0
   26.2697    7.2565   -6.6460 H   0  0  0  0  0  0  0  0  0  0  0  0
  1  2  2  0
  1  7  1  0
  1  5  1  0
  2  3  1  0
  3  4  1  0
  4  8  2  0
  4  6  1  0
  6 10  1  0
  6  7  2  0
  8  9  1  0
  9 17  1  0
  9 10  2  0
 10 20  1  0
 17 18  2  0
 18 19  1  0
 19 20  2  0
  5 11  1  0
 11 12  2  0
 11 15  1  0
 12 13  1  0
 13 16  1  0
 13 14  1  0
 14 15  2  0
 15 21  1  0
  2 22  1  0
  3 23  1  0
  7 24  1  0
 14 25  1  0
 16 26  1  1
 16 27  1  0
 16 28  1  0
 17 29  1  0
 18 30  1  0
 20 31  1  0
 21 32  1  1
 21 33  1  0
 21 34  1  0
M  END
>  <Pose ID>  (183)
523

>  <Score>  (183)
-6.511148929595947

>  <smiles>  (183)
Cc1cn(C)nc1Oc1c[nH]c2nc3ccncc3c-2c1

$$$$

     RDKit          3D

 38 41  0  0  0  0  0  0  0  0999 V2000
   26.8520    8.8000  -10.4420 C   0  0  0  0  0  0  0  0  0  0  0  0
   27.5610    7.6140  -10.2820 C   0  0  0  0  0  0  0  0  0  0  0  0
   28.8170    7.4720  -10.8610 N   0  0  0  0  0  0  0  0  0  0  0  0
   25.6170    9.2610  -10.0060 N   0  0  0  0  0  0  0  0  0  0  0  0
   29.3640    8.5120  -11.6010 C   0  0  0  0  0  0  0  0  0  0  0  0
   28.6550    9.6990  -11.7640 C   0  0  0  0  0  0  0  0  0  0  0  0
   27.3990    9.8400  -11.1840 C   0  0  0  0  0  0  0  0  0  0  0  0
   30.5400    8.6130  -12.2470 N   0  0  0  0  0  0  0  0  0  0  0  0
   30.6180    9.8520  -12.8390 C   0  0  0  0  0  0  0  0  0  0  0  0
   29.3740   10.3980  -12.4550 C   0  0  0  0  0  0  0  0  0  0  0  0
   25.2610    9.5570   -8.5990 C   0  0  0  0  0  0  0  0  0  0  0  0
   24.0460   10.0040   -8.1090 N   0  0  0  0  0  0  0  0  0  0  0  0
   23.8910   10.2760   -6.7540 C   0  0  0  0  0  0  0  0  0  0  0  0
   24.9560   10.0660   -5.8850 C   0  0  0  0  0  0  0  0  0  0  0  0
   26.1710    9.6030   -6.3720 C   0  0  0  0  0  0  0  0  0  0  0  0
   26.3240    9.3480   -7.7280 N   0  0  0  0  0  0  0  0  0  0  0  0
   27.1230    9.4190   -5.5920 O   0  0  0  0  0  0  0  0  0  0  0  0
   22.7880   10.7640   -6.0320 C   0  0  0  0  0  0  0  0  0  0  0  0
   23.1720   10.8190   -4.7140 C   0  0  0  0  0  0  0  0  0  0  0  0
   24.4150   10.4530   -4.6440 O   0  0  0  0  0  0  0  0  0  0  0  0
   22.3010   11.2310   -3.5520 C   0  0  1  0  0  0  0  0  0  0  0  0
   22.1530   12.7320   -3.6750 C   0  0  1  0  0  0  0  0  0  0  0  0
   28.9540   11.7830  -12.8810 C   0  0  1  0  0  0  0  0  0  0  0  0
   27.1281    6.7888   -9.6976 H   0  0  0  0  0  0  0  0  0  0  0  0
   29.3425    6.5943  -10.7409 H   0  0  0  0  0  0  0  0  0  0  0  0
   24.8889    9.4093  -10.7193 H   0  0  0  0  0  0  0  0  0  0  0  0
   26.8371   10.7769  -11.3128 H   0  0  0  0  0  0  0  0  0  0  0  0
   31.4243   10.2939  -13.4428 H   0  0  0  0  0  0  0  0  0  0  0  0
   27.2253    9.0039   -8.0888 H   0  0  0  0  0  0  0  0  0  0  0  0
   21.8075   11.0470   -6.4426 H   0  0  0  0  0  0  0  0  0  0  0  0
   21.3183   10.7407   -3.6145 H   0  0  0  0  0  0  0  0  0  0  0  0
   22.7413   10.9405   -2.5867 H   0  0  0  0  0  0  0  0  0  0  0  0
   22.1089   13.1796   -2.6711 H   0  0  0  0  0  0  0  0  0  0  0  0
   23.0151   13.1419   -4.2216 H   0  0  0  0  0  0  0  0  0  0  0  0
   21.2275   12.9656   -4.2216 H   0  0  0  0  0  0  0  0  0  0  0  0
   28.7669   12.3998  -11.9896 H   0  0  0  0  0  0  0  0  0  0  0  0
   29.7539   12.2401  -13.4820 H   0  0  0  0  0  0  0  0  0  0  0  0
   28.0349   11.7189  -13.4820 H   0  0  0  0  0  0  0  0  0  0  0  0
  4  1  1  0
  4 11  1  0
 11 12  2  0
 11 16  1  0
 12 13  1  0
 13 18  1  0
 13 14  2  0
 14 15  1  0
 14 20  1  0
 15 16  1  0
 15 17  2  0
 18 19  2  0
 19 20  1  0
 19 21  1  0
  1  7  1  0
  1  2  2  0
  2  3  1  0
  3  5  1  0
  5  8  2  0
  5  6  1  0
  6 10  1  0
  6  7  2  0
  8  9  1  0
  9 10  2  0
 10 23  1  0
 21 22  1  0
  2 24  1  0
  3 25  1  0
  4 26  1  0
  7 27  1  0
  9 28  1  0
 16 29  1  0
 18 30  1  0
 21 31  1  6
 21 32  1  0
 22 33  1  1
 22 34  1  0
 22 35  1  0
 23 36  1  1
 23 37  1  0
 23 38  1  0
M  END
>  <Pose ID>  (184)
22

>  <Score>  (184)
-6.50289249420166

>  <smiles>  (184)
CCc1cc2nc(Nc3c[nH]c4ncc(C)c-4c3)[nH]c(=O)c2o1

$$$$

     RDKit          3D

 36 39  0  0  0  0  0  0  0  0999 V2000
   27.5640    7.7210  -10.1070 C   0  0  0  0  0  0  0  0  0  0  0  0
   28.3210    7.0310  -11.0450 C   0  0  0  0  0  0  0  0  0  0  0  0
   29.1120    7.7310  -11.9490 N   0  0  0  0  0  0  0  0  0  0  0  0
   29.1450    9.1190  -11.9160 C   0  0  0  0  0  0  0  0  0  0  0  0
   26.7970    6.8430   -9.2260 O   0  0  0  0  0  0  0  0  0  0  0  0
   28.3870    9.8100  -10.9760 C   0  0  0  0  0  0  0  0  0  0  0  0
   27.5990    9.1100  -10.0710 C   0  0  0  0  0  0  0  0  0  0  0  0
   29.8190   10.0050  -12.6730 N   0  0  0  0  0  0  0  0  0  0  0  0
   29.5120   11.2760  -12.2470 C   0  0  0  0  0  0  0  0  0  0  0  0
   28.6100   10.9840  -11.1990 C   0  0  0  0  0  0  0  0  0  0  0  0
   26.1980    7.2560   -8.0300 C   0  0  0  0  0  0  0  0  0  0  0  0
   25.4870    8.4470   -8.0640 N   0  0  0  0  0  0  0  0  0  0  0  0
   25.0070    8.6880   -6.7880 N   0  0  0  0  0  0  0  0  0  0  0  0
   25.3920    7.6820   -5.9930 C   0  0  0  0  0  0  0  0  0  0  0  0
   26.0920    6.8120   -6.7260 C   0  0  0  0  0  0  0  0  0  0  0  0
   24.2770    9.7400   -6.4480 C   0  0  0  0  0  0  0  0  0  0  0  0
   24.7380   11.0400   -6.6130 C   0  0  0  0  0  0  0  0  0  0  0  0
   23.0000    9.5120   -5.9480 C   0  0  0  0  0  0  0  0  0  0  0  0
   22.1840   10.5850   -5.6130 N   0  0  0  0  0  0  0  0  0  0  0  0
   23.9200   12.1150   -6.2780 C   0  0  0  0  0  0  0  0  0  0  0  0
   22.6560   11.9050   -5.8030 C   0  0  0  0  0  0  0  0  0  0  0  0
   22.5890    8.3480   -5.8000 O   0  0  0  0  0  0  0  0  0  0  0  0
   26.1250   11.2860   -7.1540 C   0  0  1  0  0  0  0  0  0  0  0  0
   28.2947    5.9317  -11.0726 H   0  0  0  0  0  0  0  0  0  0  0  0
   29.6743    7.2195  -12.6441 H   0  0  0  0  0  0  0  0  0  0  0  0
   27.0022    9.6555   -9.3252 H   0  0  0  0  0  0  0  0  0  0  0  0
   29.8688   12.2481  -12.6182 H   0  0  0  0  0  0  0  0  0  0  0  0
   28.1318   11.7821  -10.6122 H   0  0  0  0  0  0  0  0  0  0  0  0
   25.1699    7.5880   -4.9198 H   0  0  0  0  0  0  0  0  0  0  0  0
   26.5232    5.8744   -6.3452 H   0  0  0  0  0  0  0  0  0  0  0  0
   21.2424   10.4208   -5.2292 H   0  0  0  0  0  0  0  0  0  0  0  0
   24.2942   13.1426   -6.3966 H   0  0  0  0  0  0  0  0  0  0  0  0
   22.0064   12.7612   -5.5687 H   0  0  0  0  0  0  0  0  0  0  0  0
   26.8281   11.4107   -6.3173 H   0  0  0  0  0  0  0  0  0  0  0  0
   26.4358   10.4290   -7.7695 H   0  0  0  0  0  0  0  0  0  0  0  0
   26.1221   12.1977   -7.7695 H   0  0  0  0  0  0  0  0  0  0  0  0
 11  5  1  0
 11 12  2  0
 11 15  1  0
 12 13  1  0
 13 16  1  0
 13 14  1  0
 14 15  2  0
 16 17  2  0
 16 18  1  0
 17 23  1  0
 17 20  1  0
 18 22  2  0
 18 19  1  0
 19 21  1  0
 20 21  2  0
  5  1  1  0
  1  2  2  0
  1  7  1  0
  2  3  1  0
  3  4  1  0
  4  8  2  0
  4  6  1  0
  6 10  1  0
  6  7  2  0
  8  9  1  0
  9 10  2  0
  2 24  1  0
  3 25  1  0
  7 26  1  0
  9 27  1  0
 10 28  1  0
 14 29  1  0
 15 30  1  0
 19 31  1  0
 20 32  1  0
 21 33  1  0
 23 34  1  1
 23 35  1  0
 23 36  1  0
M  END
>  <Pose ID>  (185)
242

>  <Score>  (185)
-6.496459484100342

>  <smiles>  (185)
Cc1cc[nH]c(=O)c1-n1ccc(Oc2c[nH]c3nccc-3c2)n1

$$$$

     RDKit          3D

 31 34  0  0  0  0  0  0  0  0999 V2000
   27.1810    8.2600   -9.5370 C   0  0  0  0  0  0  0  0  0  0  0  0
   27.1160    7.0740   -8.8130 N   0  0  0  0  0  0  0  0  0  0  0  0
   26.2160    6.9520   -7.7600 C   0  0  0  0  0  0  0  0  0  0  0  0
   25.3820    8.0160   -7.4310 C   0  0  0  0  0  0  0  0  0  0  0  0
   25.4470    9.2000   -8.1560 N   0  0  0  0  0  0  0  0  0  0  0  0
   26.3480    9.3230   -9.2080 C   0  0  0  0  0  0  0  0  0  0  0  0
   24.4270    8.0690   -6.4220 C   0  0  0  0  0  0  0  0  0  0  0  0
   24.1640    6.9740   -5.6080 C   0  0  0  0  0  0  0  0  0  0  0  0
   23.7080    9.2470   -6.2560 C   0  0  0  0  0  0  0  0  0  0  0  0
   23.1820    7.0540   -4.6310 N   0  0  0  0  0  0  0  0  0  0  0  0
   22.4610    8.2320   -4.4650 C   0  0  0  0  0  0  0  0  0  0  0  0
   24.3270   10.0730   -7.4060 N   0  0  0  0  0  0  0  0  0  0  0  0
   22.7230    9.3280   -5.2780 C   0  0  0  0  0  0  0  0  0  0  0  0
   28.0920    8.3820  -10.6010 C   0  0  0  0  0  0  0  0  0  0  0  0
   29.1280    9.3090  -10.6010 O   0  0  0  0  0  0  0  0  0  0  0  0
   28.1130    7.6570  -11.7580 N   0  0  0  0  0  0  0  0  0  0  0  0
   29.7420    9.0910  -11.8120 C   0  0  0  0  0  0  0  0  0  0  0  0
   29.1290    8.0830  -12.5410 C   0  0  0  0  0  0  0  0  0  0  0  0
   21.9410   10.6060   -5.0990 C   0  0  1  0  0  0  0  0  0  0  0  0
   21.3940    8.3200   -3.4020 C   0  0  1  0  0  0  0  0  0  0  0  0
   26.1634    6.0144   -7.1872 H   0  0  0  0  0  0  0  0  0  0  0  0
   26.4015   10.2613   -9.7797 H   0  0  0  0  0  0  0  0  0  0  0  0
   24.7349    6.0428   -5.7383 H   0  0  0  0  0  0  0  0  0  0  0  0
   30.6203    9.6528  -12.1629 H   0  0  0  0  0  0  0  0  0  0  0  0
   29.4084    7.7116  -13.5380 H   0  0  0  0  0  0  0  0  0  0  0  0
   21.8152   10.8116   -4.0257 H   0  0  0  0  0  0  0  0  0  0  0  0
   22.4850   11.4378   -5.5704 H   0  0  0  0  0  0  0  0  0  0  0  0
   20.9528   10.5003   -5.5704 H   0  0  0  0  0  0  0  0  0  0  0  0
   21.8629    8.2813   -2.4077 H   0  0  0  0  0  0  0  0  0  0  0  0
   20.8444    9.2665   -3.5116 H   0  0  0  0  0  0  0  0  0  0  0  0
   20.6967    7.4763   -3.5116 H   0  0  0  0  0  0  0  0  0  0  0  0
  1 14  1  0
  1  6  2  0
  1  2  1  0
  2  3  2  0
  3  4  1  0
  4  5  1  0
  4  7  2  0
  5  6  1  0
  5 12  1  0
  7  9  1  0
  7  8  1  0
  8 10  2  0
  9 12  2  0
  9 13  1  0
 10 11  1  0
 11 13  2  0
 11 20  1  0
 13 19  1  0
 14 16  2  0
 14 15  1  0
 15 17  1  0
 16 18  1  0
 17 18  2  0
  3 21  1  0
  6 22  1  0
  8 23  1  0
 17 24  1  0
 18 25  1  0
 19 26  1  1
 19 27  1  0
 19 28  1  0
 20 29  1  1
 20 30  1  0
 20 31  1  0
M  END
>  <Pose ID>  (186)
59

>  <Score>  (186)
-6.487275123596191

>  <smiles>  (186)
Cc1ncc2c(nn3cc(-c4ncco4)ncc23)c1C

$$$$

     RDKit          3D

 36 38  0  0  0  0  0  0  0  0999 V2000
   26.7180    9.0520  -10.4030 C   0  0  0  0  0  0  0  0  0  0  0  0
   27.3610    7.8700  -10.0480 C   0  0  0  0  0  0  0  0  0  0  0  0
   28.6150    7.5760  -10.5710 N   0  0  0  0  0  0  0  0  0  0  0  0
   25.5030    9.6390  -10.0690 N   0  0  0  0  0  0  0  0  0  0  0  0
   29.2260    8.4620  -11.4550 C   0  0  0  0  0  0  0  0  0  0  0  0
   28.5820    9.6410  -11.8110 C   0  0  0  0  0  0  0  0  0  0  0  0
   27.3290    9.9360  -11.2860 C   0  0  0  0  0  0  0  0  0  0  0  0
   30.4110    8.3980  -12.0850 N   0  0  0  0  0  0  0  0  0  0  0  0
   30.5630    9.5250  -12.8590 C   0  0  0  0  0  0  0  0  0  0  0  0
   29.3450   10.1860  -12.5880 C   0  0  0  0  0  0  0  0  0  0  0  0
   25.1480   10.1660   -8.7300 C   0  0  0  0  0  0  0  0  0  0  0  0
   23.9540   10.7450   -8.3400 N   0  0  0  0  0  0  0  0  0  0  0  0
   23.7980   11.2340   -7.0480 C   0  0  0  0  0  0  0  0  0  0  0  0
   24.8400   11.1070   -6.1350 C   0  0  0  0  0  0  0  0  0  0  0  0
   26.0350   10.5130   -6.5190 C   0  0  0  0  0  0  0  0  0  0  0  0
   26.1880   10.0410   -7.8170 N   0  0  0  0  0  0  0  0  0  0  0  0
   26.9650   10.4030   -5.7030 O   0  0  0  0  0  0  0  0  0  0  0  0
   26.6910   11.1040  -11.6420 O   0  0  0  0  0  0  0  0  0  0  0  0
   27.3370   12.2090  -11.0240 C   0  0  1  0  0  0  0  0  0  0  0  0
   26.7310   12.6410   -9.6820 C   0  0  1  0  0  0  0  0  0  0  0  0
   27.4330   13.5670   -8.7840 C   0  0  1  0  0  0  0  0  0  0  0  0
   26.8768    7.1680   -9.3532 H   0  0  0  0  0  0  0  0  0  0  0  0
   29.0923    6.7029  -10.3048 H   0  0  0  0  0  0  0  0  0  0  0  0
   24.7928    9.7137  -10.8113 H   0  0  0  0  0  0  0  0  0  0  0  0
   31.3989    9.8267  -13.5072 H   0  0  0  0  0  0  0  0  0  0  0  0
   29.0967   11.1493  -13.0574 H   0  0  0  0  0  0  0  0  0  0  0  0
   22.8566   11.7183   -6.7495 H   0  0  0  0  0  0  0  0  0  0  0  0
   24.7170   11.4779   -5.1067 H   0  0  0  0  0  0  0  0  0  0  0  0
   27.0730    9.5981   -8.1026 H   0  0  0  0  0  0  0  0  0  0  0  0
   28.3893   11.9381  -10.8528 H   0  0  0  0  0  0  0  0  0  0  0  0
   27.2138   13.0616  -11.7080 H   0  0  0  0  0  0  0  0  0  0  0  0
   25.7633   13.1091   -9.9152 H   0  0  0  0  0  0  0  0  0  0  0  0
   26.7392   11.7033   -9.1069 H   0  0  0  0  0  0  0  0  0  0  0  0
   27.2252   13.2928   -7.7392 H   0  0  0  0  0  0  0  0  0  0  0  0
   28.5156   13.5083   -8.9701 H   0  0  0  0  0  0  0  0  0  0  0  0
   27.0841   14.5935   -8.9701 H   0  0  0  0  0  0  0  0  0  0  0  0
  1  7  1  0
  1  4  1  0
  1  2  2  0
  2  3  1  0
  3  5  1  0
  5  8  2  0
  5  6  1  0
  6 10  1  0
  6  7  2  0
  7 18  1  0
  8  9  1  0
  9 10  2  0
  4 11  1  0
 11 12  2  0
 11 16  1  0
 12 13  1  0
 13 14  2  0
 14 15  1  0
 15 16  1  0
 15 17  2  0
 18 19  1  0
 19 20  1  0
 20 21  1  0
  2 22  1  0
  3 23  1  0
  4 24  1  0
  9 25  1  0
 10 26  1  0
 13 27  1  0
 14 28  1  0
 16 29  1  0
 19 30  1  1
 19 31  1  0
 20 32  1  6
 20 33  1  0
 21 34  1  1
 21 35  1  0
 21 36  1  0
M  END
>  <Pose ID>  (187)
32

>  <Score>  (187)
-6.487181186676025

>  <smiles>  (187)
CCCOc1c(Nc2nccc(=O)[nH]2)c[nH]c2nccc1-2

$$$$

     RDKit          3D

 40 43  0  0  0  0  0  0  0  0999 V2000
   27.3680    7.9880  -10.1570 C   0  0  0  0  0  0  0  0  0  0  0  0
   28.4340    7.1900  -10.5390 C   0  0  0  0  0  0  0  0  0  0  0  0
   29.4330    7.7080  -11.3540 N   0  0  0  0  0  0  0  0  0  0  0  0
   26.5440    7.2770   -9.3710 N   0  0  0  0  0  0  0  0  0  0  0  0
   29.3630    9.0260  -11.7860 C   0  0  0  0  0  0  0  0  0  0  0  0
   28.2940    9.8270  -11.4020 C   0  0  0  0  0  0  0  0  0  0  0  0
   27.2960    9.3100  -10.5890 C   0  0  0  0  0  0  0  0  0  0  0  0
   30.1940    9.7420  -12.5650 N   0  0  0  0  0  0  0  0  0  0  0  0
   29.6850   11.0110  -12.7040 C   0  0  0  0  0  0  0  0  0  0  0  0
   28.5060   10.9010  -11.9380 C   0  0  0  0  0  0  0  0  0  0  0  0
   25.9990    7.7850   -8.1520 C   0  0  0  0  0  0  0  0  0  0  0  0
   25.3300    6.9050   -7.3110 N   0  0  0  0  0  0  0  0  0  0  0  0
   24.6840    7.3810   -6.1750 C   0  0  0  0  0  0  0  0  0  0  0  0
   24.7080    8.7390   -5.8820 C   0  0  0  0  0  0  0  0  0  0  0  0
   25.3780    9.6210   -6.7230 C   0  0  0  0  0  0  0  0  0  0  0  0
   26.0490    9.1370   -7.8420 C   0  0  0  0  0  0  0  0  0  0  0  0
   23.9550    6.7120   -5.1880 C   0  0  0  0  0  0  0  0  0  0  0  0
   23.6710    7.6620   -4.2310 N   0  0  0  0  0  0  0  0  0  0  0  0
   24.1070    8.8440   -4.5190 C   0  0  0  0  0  0  0  0  0  0  0  0
   24.1280   10.0630   -3.8810 O   0  0  0  0  0  0  0  0  0  0  0  0
   22.8080   10.5690   -3.8430 C   0  0  1  0  0  0  0  0  0  0  0  0
   25.3780   11.1000   -6.4210 C   0  0  1  0  0  0  0  0  0  0  0  0
   30.2340   12.1930  -13.4640 C   0  0  1  0  0  0  0  0  0  0  0  0
   28.4896    6.1460  -10.1970 H   0  0  0  0  0  0  0  0  0  0  0  0
   30.2255    7.1145  -11.6378 H   0  0  0  0  0  0  0  0  0  0  0  0
   26.2931    6.3208   -9.6602 H   0  0  0  0  0  0  0  0  0  0  0  0
   26.4491    9.9432  -10.2860 H   0  0  0  0  0  0  0  0  0  0  0  0
   27.8097   11.7456  -11.8292 H   0  0  0  0  0  0  0  0  0  0  0  0
   25.3123    5.8985   -7.5289 H   0  0  0  0  0  0  0  0  0  0  0  0
   26.6196    9.8266   -8.4815 H   0  0  0  0  0  0  0  0  0  0  0  0
   23.6682    5.6501   -5.1773 H   0  0  0  0  0  0  0  0  0  0  0  0
   22.4918   10.6902   -2.7964 H   0  0  0  0  0  0  0  0  0  0  0  0
   22.7742   11.5438   -4.3515 H   0  0  0  0  0  0  0  0  0  0  0  0
   22.1313    9.8665   -4.3515 H   0  0  0  0  0  0  0  0  0  0  0  0
   26.4151   11.4592   -6.3476 H   0  0  0  0  0  0  0  0  0  0  0  0
   24.8595   11.6389   -7.2276 H   0  0  0  0  0  0  0  0  0  0  0  0
   24.8595   11.2796   -5.4677 H   0  0  0  0  0  0  0  0  0  0  0  0
   30.5875   12.9541  -12.7528 H   0  0  0  0  0  0  0  0  0  0  0  0
   31.0720   11.8650  -14.0967 H   0  0  0  0  0  0  0  0  0  0  0  0
   29.4428   12.6217  -14.0967 H   0  0  0  0  0  0  0  0  0  0  0  0
  4  1  1  0
  4 11  1  0
  1  7  1  0
  1  2  2  0
  2  3  1  0
  3  5  1  0
  5  8  2  0
  5  6  1  0
  6 10  1  0
  6  7  2  0
  8  9  1  0
  9 23  1  0
  9 10  2  0
 11 16  2  0
 11 12  1  0
 12 13  1  0
 13 14  1  0
 13 17  2  0
 14 15  2  0
 14 19  1  0
 15 16  1  0
 15 22  1  0
 17 18  1  0
 18 19  2  0
 19 20  1  0
 20 21  1  0
  2 24  1  0
  3 25  1  0
  4 26  1  0
  7 27  1  0
 10 28  1  0
 12 29  1  0
 16 30  1  0
 17 31  1  0
 21 32  1  1
 21 33  1  0
 21 34  1  0
 22 35  1  1
 22 36  1  0
 22 37  1  0
 23 38  1  1
 23 39  1  0
 23 40  1  0
M  END
>  <Pose ID>  (188)
56

>  <Score>  (188)
-6.483760356903076

>  <smiles>  (188)
COc1ncc2[nH]c(Nc3c[nH]c4nc(C)cc-4c3)cc(C)c1-2

$$$$

     RDKit          3D

 32 35  0  0  0  0  0  0  0  0999 V2000
   28.5370   11.8930  -11.5880 C   0  0  0  0  0  0  0  0  0  0  0  0
   28.2260   10.6540  -11.1070 N   0  0  0  0  0  0  0  0  0  0  0  0
   27.1400   10.3560  -10.2910 C   0  0  0  0  0  0  0  0  0  0  0  0
   27.6780   12.9330  -11.2520 C   0  0  0  0  0  0  0  0  0  0  0  0
   27.0560    9.0920   -9.9890 N   0  0  0  0  0  0  0  0  0  0  0  0
   26.4620   12.6660  -10.3530 C   0  0  0  0  0  0  0  0  0  0  0  0
   26.2610   11.3630   -9.9150 C   0  0  0  0  0  0  0  0  0  0  0  0
   27.9320   14.2200  -11.7100 C   0  0  0  0  0  0  0  0  0  0  0  0
   29.0470   14.4680  -12.5030 N   0  0  0  0  0  0  0  0  0  0  0  0
   29.9050   13.4310  -12.8390 C   0  0  0  0  0  0  0  0  0  0  0  0
   29.6380   12.1350  -12.3940 C   0  0  0  0  0  0  0  0  0  0  0  0
   26.0350    8.6480   -9.1930 C   0  0  0  0  0  0  0  0  0  0  0  0
   27.9330    8.0350  -10.3980 N   0  0  0  0  0  0  0  0  0  0  0  0
   26.2430    7.3000   -9.1030 C   0  0  0  0  0  0  0  0  0  0  0  0
   27.4150    6.9720   -9.8370 C   0  0  0  0  0  0  0  0  0  0  0  0
   30.6230   11.2640  -12.8940 C   0  0  0  0  0  0  0  0  0  0  0  0
   31.5430   12.0470  -13.6800 C   0  0  0  0  0  0  0  0  0  0  0  0
   31.1150   13.2720  -13.5680 O   0  0  0  0  0  0  0  0  0  0  0  0
   26.9980   15.3490  -11.3470 C   0  0  1  0  0  0  0  0  0  0  0  0
   27.6850   16.1590  -10.2690 C   0  0  1  0  0  0  0  0  0  0  0  0
   25.7756   13.4764  -10.0665 H   0  0  0  0  0  0  0  0  0  0  0  0
   25.4027   11.1283   -9.2682 H   0  0  0  0  0  0  0  0  0  0  0  0
   25.2312    9.2403   -8.7314 H   0  0  0  0  0  0  0  0  0  0  0  0
   25.6091    6.5880   -8.5541 H   0  0  0  0  0  0  0  0  0  0  0  0
   27.8321    5.9577   -9.9224 H   0  0  0  0  0  0  0  0  0  0  0  0
   30.6807   10.1799  -12.7169 H   0  0  0  0  0  0  0  0  0  0  0  0
   32.4140   11.6892  -14.2487 H   0  0  0  0  0  0  0  0  0  0  0  0
   26.8053   15.9786  -12.2282 H   0  0  0  0  0  0  0  0  0  0  0  0
   26.0314   14.9616  -10.9925 H   0  0  0  0  0  0  0  0  0  0  0  0
   27.3736   15.7918   -9.2799 H   0  0  0  0  0  0  0  0  0  0  0  0
   28.7753   16.0560  -10.3717 H   0  0  0  0  0  0  0  0  0  0  0  0
   27.4054   17.2179  -10.3717 H   0  0  0  0  0  0  0  0  0  0  0  0
  1 11  1  0
  1  4  1  0
  1  2  2  0
  2  3  1  0
  3  5  1  0
  3  7  2  0
  4  8  1  0
  4  6  2  0
  6  7  1  0
  8  9  2  0
  8 19  1  0
  9 10  1  0
 10 18  1  0
 10 11  2  0
 11 16  1  0
 16 17  2  0
 17 18  1  0
  5 13  1  0
  5 12  1  0
 12 14  2  0
 13 15  2  0
 14 15  1  0
 19 20  1  0
  6 21  1  0
  7 22  1  0
 12 23  1  0
 14 24  1  0
 15 25  1  0
 16 26  1  0
 17 27  1  0
 19 28  1  6
 19 29  1  0
 20 30  1  1
 20 31  1  0
 20 32  1  0
M  END
>  <Pose ID>  (189)
97

>  <Score>  (189)
-6.476367473602295

>  <smiles>  (189)
CCc1nc2occc2c2nc(-n3cccn3)ccc12

$$$$

     RDKit          3D

 35 38  0  0  0  0  0  0  0  0999 V2000
   27.1150    8.6280  -10.2840 C   0  0  0  0  0  0  0  0  0  0  0  0
   27.9150    7.5570  -10.6590 C   0  0  0  0  0  0  0  0  0  0  0  0
   29.0270    7.7660  -11.4660 N   0  0  0  0  0  0  0  0  0  0  0  0
   29.3400    9.0490  -11.8980 C   0  0  0  0  0  0  0  0  0  0  0  0
   25.9940    8.2430   -9.4310 O   0  0  0  0  0  0  0  0  0  0  0  0
   28.5390   10.1230  -11.5240 C   0  0  0  0  0  0  0  0  0  0  0  0
   27.4280    9.9120  -10.7150 C   0  0  0  0  0  0  0  0  0  0  0  0
   30.3460    9.4980  -12.6720 N   0  0  0  0  0  0  0  0  0  0  0  0
   30.2490   10.7430  -12.8150 C   0  0  0  0  0  0  0  0  0  0  0  0
   29.1230   11.1730  -12.1240 C   0  0  0  0  0  0  0  0  0  0  0  0
   25.2260    9.1460   -8.6890 C   0  0  0  0  0  0  0  0  0  0  0  0
   24.8060   10.2970   -9.3350 N   0  0  0  0  0  0  0  0  0  0  0  0
   24.0940   11.0590   -8.4270 N   0  0  0  0  0  0  0  0  0  0  0  0
   24.0590   10.4030   -7.2580 C   0  0  0  0  0  0  0  0  0  0  0  0
   24.7180    9.2490   -7.4060 C   0  0  0  0  0  0  0  0  0  0  0  0
   23.5280   12.3280   -8.8110 C   0  0  1  0  0  0  0  0  0  0  0  0
   31.0270   11.6570  -13.5160 C   0  0  0  0  0  0  0  0  0  0  0  0
   30.6800   13.0030  -13.5250 C   0  0  0  0  0  0  0  0  0  0  0  0
   29.5540   13.4340  -12.8330 C   0  0  0  0  0  0  0  0  0  0  0  0
   28.7750   12.5190  -12.1330 C   0  0  0  0  0  0  0  0  0  0  0  0
   24.8850    8.2070   -6.3270 C   0  0  1  0  0  0  0  0  0  0  0  0
   27.6682    6.5412  -10.3167 H   0  0  0  0  0  0  0  0  0  0  0  0
   29.6189    6.9701  -11.7438 H   0  0  0  0  0  0  0  0  0  0  0  0
   26.7964   10.7615  -10.4159 H   0  0  0  0  0  0  0  0  0  0  0  0
   23.5721   10.7538   -6.3361 H   0  0  0  0  0  0  0  0  0  0  0  0
   23.2715   12.9031   -7.9090 H   0  0  0  0  0  0  0  0  0  0  0  0
   24.2606   12.8905   -9.4085 H   0  0  0  0  0  0  0  0  0  0  0  0
   22.6200   12.1588   -9.4085 H   0  0  0  0  0  0  0  0  0  0  0  0
   31.9175   11.3151  -14.0638 H   0  0  0  0  0  0  0  0  0  0  0  0
   31.2959   13.7265  -14.0792 H   0  0  0  0  0  0  0  0  0  0  0  0
   29.2791   14.4991  -12.8391 H   0  0  0  0  0  0  0  0  0  0  0  0
   27.8835   12.8602  -11.5864 H   0  0  0  0  0  0  0  0  0  0  0  0
   24.8082    8.6859   -5.3397 H   0  0  0  0  0  0  0  0  0  0  0  0
   24.0974    7.4457   -6.4274 H   0  0  0  0  0  0  0  0  0  0  0  0
   25.8711    7.7299   -6.4274 H   0  0  0  0  0  0  0  0  0  0  0  0
  1  7  1  0
  1  2  2  0
  1  5  1  0
  2  3  1  0
  3  4  1  0
  4  8  2  0
  4  6  1  0
  6 10  1  0
  6  7  2  0
  8  9  1  0
  9 17  1  0
  9 10  2  0
 10 20  1  0
 17 18  2  0
 18 19  1  0
 19 20  2  0
  5 11  1  0
 11 12  2  0
 11 15  1  0
 12 13  1  0
 13 16  1  0
 13 14  1  0
 14 15  2  0
 15 21  1  0
  2 22  1  0
  3 23  1  0
  7 24  1  0
 14 25  1  0
 16 26  1  1
 16 27  1  0
 16 28  1  0
 17 29  1  0
 18 30  1  0
 19 31  1  0
 20 32  1  0
 21 33  1  1
 21 34  1  0
 21 35  1  0
M  END
>  <Pose ID>  (190)
500

>  <Score>  (190)
-6.474075794219971

>  <smiles>  (190)
Cc1cn(C)nc1Oc1c[nH]c2nc3ccccc3c-2c1

$$$$

     RDKit          3D

 29 32  0  0  0  0  0  0  0  0999 V2000
   28.5300   11.8920  -11.5810 C   0  0  0  0  0  0  0  0  0  0  0  0
   28.2230   10.6490  -11.1070 N   0  0  0  0  0  0  0  0  0  0  0  0
   27.1400   10.3430  -10.2910 C   0  0  0  0  0  0  0  0  0  0  0  0
   27.6690   12.9280  -11.2370 C   0  0  0  0  0  0  0  0  0  0  0  0
   27.0590    9.0770   -9.9960 N   0  0  0  0  0  0  0  0  0  0  0  0
   26.4560   12.6520  -10.3370 C   0  0  0  0  0  0  0  0  0  0  0  0
   26.2590   11.3460   -9.9070 C   0  0  0  0  0  0  0  0  0  0  0  0
   27.9190   14.2180  -11.6870 C   0  0  0  0  0  0  0  0  0  0  0  0
   29.0320   14.4740  -12.4800 N   0  0  0  0  0  0  0  0  0  0  0  0
   29.8920   13.4410  -12.8240 C   0  0  0  0  0  0  0  0  0  0  0  0
   29.6290   12.1420  -12.3870 C   0  0  0  0  0  0  0  0  0  0  0  0
   26.0410    8.6260   -9.2010 C   0  0  0  0  0  0  0  0  0  0  0  0
   27.9380    8.0250  -10.4140 N   0  0  0  0  0  0  0  0  0  0  0  0
   26.2530    7.2780   -9.1200 C   0  0  0  0  0  0  0  0  0  0  0  0
   27.4240    6.9570   -9.8580 C   0  0  0  0  0  0  0  0  0  0  0  0
   30.6160   11.2760  -12.8940 C   0  0  0  0  0  0  0  0  0  0  0  0
   31.5320   12.0670  -13.6770 C   0  0  0  0  0  0  0  0  0  0  0  0
   31.1010   13.2900  -13.5570 O   0  0  0  0  0  0  0  0  0  0  0  0
   26.9830   15.3420  -11.3150 C   0  0  1  0  0  0  0  0  0  0  0  0
   25.7683   13.4588  -10.0436 H   0  0  0  0  0  0  0  0  0  0  0  0
   25.4025   11.1052   -9.2602 H   0  0  0  0  0  0  0  0  0  0  0  0
   25.2366    9.2133   -8.7341 H   0  0  0  0  0  0  0  0  0  0  0  0
   25.6220    6.5610   -8.5743 H   0  0  0  0  0  0  0  0  0  0  0  0
   27.8435    5.9443   -9.9501 H   0  0  0  0  0  0  0  0  0  0  0  0
   30.6773   10.1910  -12.7234 H   0  0  0  0  0  0  0  0  0  0  0  0
   32.4029   11.7152  -14.2495 H   0  0  0  0  0  0  0  0  0  0  0  0
   26.9192   15.4186  -10.2195 H   0  0  0  0  0  0  0  0  0  0  0  0
   27.3640   16.2880  -11.7272 H   0  0  0  0  0  0  0  0  0  0  0  0
   25.9836   15.1386  -11.7272 H   0  0  0  0  0  0  0  0  0  0  0  0
  1 11  1  0
  1  4  1  0
  1  2  2  0
  2  3  1  0
  3  5  1  0
  3  7  2  0
  4  8  1  0
  4  6  2  0
  6  7  1  0
  8  9  2  0
  8 19  1  0
  9 10  1  0
 10 18  1  0
 10 11  2  0
 11 16  1  0
 16 17  2  0
 17 18  1  0
  5 13  1  0
  5 12  1  0
 12 14  2  0
 13 15  2  0
 14 15  1  0
  6 20  1  0
  7 21  1  0
 12 22  1  0
 14 23  1  0
 15 24  1  0
 16 25  1  0
 17 26  1  0
 19 27  1  1
 19 28  1  0
 19 29  1  0
M  END
>  <Pose ID>  (191)
95

>  <Score>  (191)
-6.471680164337158

>  <smiles>  (191)
Cc1nc2occc2c2nc(-n3cccn3)ccc12

$$$$

     RDKit          3D

 38 41  0  0  0  0  0  0  0  0999 V2000
   28.1380    7.9200  -10.5290 C   0  0  0  0  0  0  0  0  0  0  0  0
   29.0330    7.1500  -11.2600 C   0  0  0  0  0  0  0  0  0  0  0  0
   29.9230    7.7600  -12.1340 N   0  0  0  0  0  0  0  0  0  0  0  0
   29.9200    9.1440  -12.2770 C   0  0  0  0  0  0  0  0  0  0  0  0
   27.2780    7.1300   -9.6530 O   0  0  0  0  0  0  0  0  0  0  0  0
   29.0230    9.9150  -11.5460 C   0  0  0  0  0  0  0  0  0  0  0  0
   28.1320    9.3010  -10.6730 C   0  0  0  0  0  0  0  0  0  0  0  0
   30.6710    9.9540  -13.0470 N   0  0  0  0  0  0  0  0  0  0  0  0
   30.2770   11.2560  -12.8360 C   0  0  0  0  0  0  0  0  0  0  0  0
   29.2490   11.0600  -11.8900 C   0  0  0  0  0  0  0  0  0  0  0  0
   26.5080    7.6660   -8.6150 C   0  0  0  0  0  0  0  0  0  0  0  0
   25.7810    8.8120   -8.8940 N   0  0  0  0  0  0  0  0  0  0  0  0
   25.1210    9.1930   -7.7400 N   0  0  0  0  0  0  0  0  0  0  0  0
   25.4180    8.3110   -6.7750 C   0  0  0  0  0  0  0  0  0  0  0  0
   26.2330    7.3820   -7.2880 C   0  0  0  0  0  0  0  0  0  0  0  0
   24.3230   10.2270   -7.5950 C   0  0  0  0  0  0  0  0  0  0  0  0
   23.7720   10.4030   -6.3320 N   0  0  0  0  0  0  0  0  0  0  0  0
   24.2400   11.2430   -8.5380 C   0  0  0  0  0  0  0  0  0  0  0  0
   23.6050   12.4370   -8.2180 C   0  0  0  0  0  0  0  0  0  0  0  0
   23.1360   11.5960   -6.0120 C   0  0  0  0  0  0  0  0  0  0  0  0
   23.0290   12.6010   -6.9470 C   0  0  0  0  0  0  0  0  0  0  0  0
   30.8000   12.5340  -13.4450 C   0  0  1  0  0  0  0  0  0  0  0  0
   28.4630   12.2200  -11.3310 C   0  0  1  0  0  0  0  0  0  0  0  0
   29.0369    6.0559  -11.1466 H   0  0  0  0  0  0  0  0  0  0  0  0
   30.5856    7.1878  -12.6766 H   0  0  0  0  0  0  0  0  0  0  0  0
   27.4212    9.9102  -10.0955 H   0  0  0  0  0  0  0  0  0  0  0  0
   25.0536    8.3452   -5.7377 H   0  0  0  0  0  0  0  0  0  0  0  0
   26.6278    6.5170   -6.7350 H   0  0  0  0  0  0  0  0  0  0  0  0
   24.6767   11.1028   -9.5378 H   0  0  0  0  0  0  0  0  0  0  0  0
   23.5535   13.2504   -8.9568 H   0  0  0  0  0  0  0  0  0  0  0  0
   22.7154   11.7385   -5.0056 H   0  0  0  0  0  0  0  0  0  0  0  0
   22.4940   13.5298   -6.6996 H   0  0  0  0  0  0  0  0  0  0  0  0
   31.0856   13.2318  -12.6441 H   0  0  0  0  0  0  0  0  0  0  0  0
   31.6790   12.3107  -14.0674 H   0  0  0  0  0  0  0  0  0  0  0  0
   30.0166   12.9910  -14.0674 H   0  0  0  0  0  0  0  0  0  0  0  0
   28.4875   12.1838  -10.2319 H   0  0  0  0  0  0  0  0  0  0  0  0
   28.9077   13.1648  -11.6768 H   0  0  0  0  0  0  0  0  0  0  0  0
   27.4206   12.1572  -11.6768 H   0  0  0  0  0  0  0  0  0  0  0  0
  1  2  2  0
  1  7  1  0
  1  5  1  0
  2  3  1  0
  3  4  1  0
  4  8  2  0
  4  6  1  0
  6 10  1  0
  6  7  2  0
  8  9  1  0
  9 22  1  0
  9 10  2  0
 10 23  1  0
  5 11  1  0
 11 12  2  0
 11 15  1  0
 12 13  1  0
 13 16  1  0
 13 14  1  0
 14 15  2  0
 16 18  1  0
 16 17  2  0
 17 20  1  0
 18 19  2  0
 19 21  1  0
 20 21  2  0
  2 24  1  0
  3 25  1  0
  7 26  1  0
 14 27  1  0
 15 28  1  0
 18 29  1  0
 19 30  1  0
 20 31  1  0
 21 32  1  0
 22 33  1  1
 22 34  1  0
 22 35  1  0
 23 36  1  1
 23 37  1  0
 23 38  1  0
M  END
>  <Pose ID>  (192)
320

>  <Score>  (192)
-6.4591898918151855

>  <smiles>  (192)
Cc1nc2[nH]cc(Oc3ccn(-c4ccccn4)n3)cc-2c1C

$$$$

     RDKit          3D

 25 28  0  0  0  0  0  0  0  0999 V2000
   27.2490    8.2060   -9.6520 C   0  0  0  0  0  0  0  0  0  0  0  0
   27.1300    7.0760   -8.8500 N   0  0  0  0  0  0  0  0  0  0  0  0
   26.1920    7.0470   -7.8260 C   0  0  0  0  0  0  0  0  0  0  0  0
   25.3720    8.1470   -7.6040 C   0  0  0  0  0  0  0  0  0  0  0  0
   25.4880    9.2760   -8.4060 N   0  0  0  0  0  0  0  0  0  0  0  0
   26.4290    9.3060   -9.4290 C   0  0  0  0  0  0  0  0  0  0  0  0
   24.3830    8.2910   -6.6360 C   0  0  0  0  0  0  0  0  0  0  0  0
   24.0650    7.2610   -5.7580 C   0  0  0  0  0  0  0  0  0  0  0  0
   23.6840    9.4910   -6.5790 C   0  0  0  0  0  0  0  0  0  0  0  0
   23.0500    7.4300   -4.8250 N   0  0  0  0  0  0  0  0  0  0  0  0
   22.3510    8.6310   -4.7690 C   0  0  0  0  0  0  0  0  0  0  0  0
   24.3630   10.2210   -7.7600 N   0  0  0  0  0  0  0  0  0  0  0  0
   22.6680    9.6610   -5.6460 C   0  0  0  0  0  0  0  0  0  0  0  0
   28.1980    8.2360  -10.6890 C   0  0  0  0  0  0  0  0  0  0  0  0
   29.2550    9.1380  -10.7140 O   0  0  0  0  0  0  0  0  0  0  0  0
   29.8820    8.8310  -11.8720 C   0  0  0  0  0  0  0  0  0  0  0  0
   29.2720    7.8050  -12.5320 N   0  0  0  0  0  0  0  0  0  0  0  0
   28.2010    7.4050  -11.7920 C   0  0  0  0  0  0  0  0  0  0  0  0
   26.0982    6.1537   -7.1910 H   0  0  0  0  0  0  0  0  0  0  0  0
   26.5246   10.2005  -10.0621 H   0  0  0  0  0  0  0  0  0  0  0  0
   24.6179    6.3111   -5.8023 H   0  0  0  0  0  0  0  0  0  0  0  0
   21.5471    8.7655   -4.0303 H   0  0  0  0  0  0  0  0  0  0  0  0
   22.1149   10.6108   -5.6019 H   0  0  0  0  0  0  0  0  0  0  0  0
   30.7803    9.3489  -12.2393 H   0  0  0  0  0  0  0  0  0  0  0  0
   27.4924    6.5959  -12.0227 H   0  0  0  0  0  0  0  0  0  0  0  0
  1 14  1  0
  1  6  2  0
  1  2  1  0
  2  3  2  0
  3  4  1  0
  4  5  1  0
  4  7  2  0
  5  6  1  0
  5 12  1  0
  7  9  1  0
  7  8  1  0
  8 10  2  0
  9 12  2  0
  9 13  1  0
 10 11  1  0
 11 13  2  0
 14 18  2  0
 14 15  1  0
 15 16  1  0
 16 17  2  0
 17 18  1  0
  3 19  1  0
  6 20  1  0
  8 21  1  0
 11 22  1  0
 13 23  1  0
 16 24  1  0
 18 25  1  0
M  END
>  <Pose ID>  (193)
76

>  <Score>  (193)
-6.458951473236084

>  <smiles>  (193)
c1cc2nn3cc(-c4cnco4)ncc3c2cn1

$$$$

     RDKit          3D

 38 41  0  0  0  0  0  0  0  0999 V2000
   27.1060    8.2930   -9.8720 C   0  0  0  0  0  0  0  0  0  0  0  0
   27.6570    7.1650  -10.4650 C   0  0  0  0  0  0  0  0  0  0  0  0
   28.6740    7.2990  -11.4030 N   0  0  0  0  0  0  0  0  0  0  0  0
   29.1430    8.5610  -11.7470 C   0  0  0  0  0  0  0  0  0  0  0  0
   26.0580    7.9830   -8.9050 O   0  0  0  0  0  0  0  0  0  0  0  0
   28.5890    9.6920  -11.1510 C   0  0  0  0  0  0  0  0  0  0  0  0
   27.5740    9.5560  -10.2130 C   0  0  0  0  0  0  0  0  0  0  0  0
   30.1030    8.9450  -12.6110 N   0  0  0  0  0  0  0  0  0  0  0  0
   30.1880   10.3180  -12.6000 C   0  0  0  0  0  0  0  0  0  0  0  0
   29.1860   10.6290  -11.6540 C   0  0  0  0  0  0  0  0  0  0  0  0
   25.5550    8.8950   -7.9700 C   0  0  0  0  0  0  0  0  0  0  0  0
   25.2560   10.1670   -8.4290 N   0  0  0  0  0  0  0  0  0  0  0  0
   24.8090   10.9140   -7.3540 N   0  0  0  0  0  0  0  0  0  0  0  0
   24.8150   10.1310   -6.2640 C   0  0  0  0  0  0  0  0  0  0  0  0
   25.2440    8.9180   -6.6220 C   0  0  0  0  0  0  0  0  0  0  0  0
   24.4270   12.1900   -7.4080 C   0  0  0  0  0  0  0  0  0  0  0  0
   24.4480   12.9300   -8.5830 C   0  0  0  0  0  0  0  0  0  0  0  0
   23.7100   12.6510   -6.3100 N   0  0  0  0  0  0  0  0  0  0  0  0
   23.7530   14.1310   -8.6620 C   0  0  0  0  0  0  0  0  0  0  0  0
   23.0150   13.8520   -6.3880 C   0  0  0  0  0  0  0  0  0  0  0  0
   23.0110   14.5910   -7.5740 C   0  0  0  0  0  0  0  0  0  0  0  0
   24.4070   10.5510   -4.8730 C   0  0  1  0  0  0  0  0  0  0  0  0
   22.2610   14.3620   -5.1850 C   0  0  1  0  0  0  0  0  0  0  0  0
   27.2886    6.1650  -10.1924 H   0  0  0  0  0  0  0  0  0  0  0  0
   29.0806    6.4616  -11.8438 H   0  0  0  0  0  0  0  0  0  0  0  0
   27.1401   10.4491   -9.7395 H   0  0  0  0  0  0  0  0  0  0  0  0
   30.8508   10.9867  -13.1688 H   0  0  0  0  0  0  0  0  0  0  0  0
   28.9546   11.6697  -11.3832 H   0  0  0  0  0  0  0  0  0  0  0  0
   25.3369    8.0588   -5.9415 H   0  0  0  0  0  0  0  0  0  0  0  0
   25.0152   12.5652   -9.4520 H   0  0  0  0  0  0  0  0  0  0  0  0
   23.7883   14.7227   -9.5886 H   0  0  0  0  0  0  0  0  0  0  0  0
   22.4308   15.5225   -7.6486 H   0  0  0  0  0  0  0  0  0  0  0  0
   24.9739    9.9674   -4.1327 H   0  0  0  0  0  0  0  0  0  0  0  0
   24.6191   11.6217   -4.7362 H   0  0  0  0  0  0  0  0  0  0  0  0
   23.3306   10.3700   -4.7362 H   0  0  0  0  0  0  0  0  0  0  0  0
   22.7628   14.0226   -4.2668 H   0  0  0  0  0  0  0  0  0  0  0  0
   22.2384   15.4616   -5.2055 H   0  0  0  0  0  0  0  0  0  0  0  0
   21.2320   13.9737   -5.2055 H   0  0  0  0  0  0  0  0  0  0  0  0
 11  5  1  0
 11 12  2  0
 11 15  1  0
 12 13  1  0
 13 16  1  0
 13 14  1  0
 14 15  2  0
 14 22  1  0
 16 17  2  0
 16 18  1  0
 17 19  1  0
 18 20  2  0
 19 21  2  0
 20 21  1  0
 20 23  1  0
  5  1  1  0
  1  2  2  0
  1  7  1  0
  2  3  1  0
  3  4  1  0
  4  8  2  0
  4  6  1  0
  6 10  1  0
  6  7  2  0
  8  9  1  0
  9 10  2  0
  2 24  1  0
  3 25  1  0
  7 26  1  0
  9 27  1  0
 10 28  1  0
 15 29  1  0
 17 30  1  0
 19 31  1  0
 21 32  1  0
 22 33  1  1
 22 34  1  0
 22 35  1  0
 23 36  1  1
 23 37  1  0
 23 38  1  0
M  END
>  <Pose ID>  (194)
445

>  <Score>  (194)
-6.447688579559326

>  <smiles>  (194)
Cc1cccc(-n2nc(Oc3c[nH]c4nccc-4c3)cc2C)n1

$$$$

     RDKit          3D

 37 40  0  0  0  0  0  0  0  0999 V2000
   27.9130    7.8010  -10.3830 C   0  0  0  0  0  0  0  0  0  0  0  0
   28.8960    7.1000  -11.0700 C   0  0  0  0  0  0  0  0  0  0  0  0
   29.7760    7.7760  -11.9060 N   0  0  0  0  0  0  0  0  0  0  0  0
   29.6750    9.1540  -12.0560 C   0  0  0  0  0  0  0  0  0  0  0  0
   27.0780    6.9490   -9.5410 O   0  0  0  0  0  0  0  0  0  0  0  0
   28.6900    9.8580  -11.3690 C   0  0  0  0  0  0  0  0  0  0  0  0
   27.8120    9.1790  -10.5310 C   0  0  0  0  0  0  0  0  0  0  0  0
   30.3960   10.0180  -12.7960 N   0  0  0  0  0  0  0  0  0  0  0  0
   29.8960   11.2870  -12.6090 C   0  0  0  0  0  0  0  0  0  0  0  0
   28.8440   11.0170  -11.7070 C   0  0  0  0  0  0  0  0  0  0  0  0
   26.2250    7.4290   -8.5400 C   0  0  0  0  0  0  0  0  0  0  0  0
   25.4270    8.5140   -8.8560 N   0  0  0  0  0  0  0  0  0  0  0  0
   24.7230    8.8240   -7.7600 N   0  0  0  0  0  0  0  0  0  0  0  0
   25.0050    7.9590   -6.7110 C   0  0  0  0  0  0  0  0  0  0  0  0
   25.9160    7.1270   -7.2270 C   0  0  0  0  0  0  0  0  0  0  0  0
   23.7900    9.8410   -7.5910 C   0  0  0  0  0  0  0  0  0  0  0  0
   23.1420    9.9920   -6.3720 N   0  0  0  0  0  0  0  0  0  0  0  0
   23.4230    9.1260   -5.3210 C   0  0  0  0  0  0  0  0  0  0  0  0
   24.3560    8.1100   -5.4910 C   0  0  0  0  0  0  0  0  0  0  0  0
   30.3470   12.5990  -13.2010 C   0  0  1  0  0  0  0  0  0  0  0  0
   24.6650    7.1710   -4.3510 C   0  0  1  0  0  0  0  0  0  0  0  0
   29.2000   13.3430  -13.6850 C   0  0  1  0  0  0  0  0  0  0  0  0
   28.9777    6.0094  -10.9521 H   0  0  0  0  0  0  0  0  0  0  0  0
   30.5042    7.2552  -12.4153 H   0  0  0  0  0  0  0  0  0  0  0  0
   27.0357    9.7341   -9.9840 H   0  0  0  0  0  0  0  0  0  0  0  0
   28.1929   11.8180  -11.3269 H   0  0  0  0  0  0  0  0  0  0  0  0
   26.3692    6.2947   -6.6685 H   0  0  0  0  0  0  0  0  0  0  0  0
   23.5653   10.5255   -8.4223 H   0  0  0  0  0  0  0  0  0  0  0  0
   22.9076    9.2449   -4.3565 H   0  0  0  0  0  0  0  0  0  0  0  0
   30.8648   13.1882  -12.4298 H   0  0  0  0  0  0  0  0  0  0  0  0
   31.0306   12.4016  -14.0399 H   0  0  0  0  0  0  0  0  0  0  0  0
   24.4952    7.6871   -3.3945 H   0  0  0  0  0  0  0  0  0  0  0  0
   24.0094    6.2899   -4.4137 H   0  0  0  0  0  0  0  0  0  0  0  0
   25.7157    6.8514   -4.4137 H   0  0  0  0  0  0  0  0  0  0  0  0
   28.6197   13.7194  -12.8297 H   0  0  0  0  0  0  0  0  0  0  0  0
   29.5440   14.1904  -14.2962 H   0  0  0  0  0  0  0  0  0  0  0  0
   28.5664   12.6834  -14.2962 H   0  0  0  0  0  0  0  0  0  0  0  0
  1  2  2  0
  1  7  1  0
  1  5  1  0
  2  3  1  0
  3  4  1  0
  4  8  2  0
  4  6  1  0
  6 10  1  0
  6  7  2  0
  8  9  1  0
  9 20  1  0
  9 10  2  0
 20 22  1  0
  5 11  1  0
 11 12  2  0
 11 15  1  0
 12 13  1  0
 13 16  1  0
 13 14  1  0
 14 15  2  0
 14 19  1  0
 16 17  2  0
 17 18  1  0
 18 19  2  0
 19 21  1  0
  2 23  1  0
  3 24  1  0
  7 25  1  0
 10 26  1  0
 15 27  1  0
 16 28  1  0
 18 29  1  0
 20 30  1  1
 20 31  1  0
 21 32  1  1
 21 33  1  0
 21 34  1  0
 22 35  1  1
 22 36  1  0
 22 37  1  0
M  END
>  <Pose ID>  (195)
282

>  <Score>  (195)
-6.445774555206299

>  <smiles>  (195)
CCc1cc2cc(Oc3cc4c(C)cncn4n3)c[nH]c-2n1

$$$$

     RDKit          3D

 22 24  0  0  0  0  0  0  0  0999 V2000
   27.2560    7.1790   -9.6950 C   0  0  0  0  0  0  0  0  0  0  0  0
   27.9560    8.0850  -10.4810 N   0  0  0  0  0  0  0  0  0  0  0  0
   26.0570    7.5570   -9.0990 N   0  0  0  0  0  0  0  0  0  0  0  0
   25.5630    8.8390   -9.2870 C   0  0  0  0  0  0  0  0  0  0  0  0
   27.4590    9.3720  -10.6710 C   0  0  0  0  0  0  0  0  0  0  0  0
   26.3200    9.7630  -10.1160 C   0  0  0  0  0  0  0  0  0  0  0  0
   28.2860   10.0870  -11.4410 C   0  0  0  0  0  0  0  0  0  0  0  0
   29.4300    9.4890  -11.9570 C   0  0  0  0  0  0  0  0  0  0  0  0
   27.9710   11.3960  -11.7830 N   0  0  0  0  0  0  0  0  0  0  0  0
   28.8000   12.1090  -12.6400 C   0  0  0  0  0  0  0  0  0  0  0  0
   29.9450   11.5110  -13.1560 N   0  0  0  0  0  0  0  0  0  0  0  0
   29.3500    8.1500  -11.3200 C   0  0  0  0  0  0  0  0  0  0  0  0
   30.2560   10.2060  -12.8130 C   0  0  0  0  0  0  0  0  0  0  0  0
   28.4590   13.5300  -13.0110 C   0  0  1  0  0  0  0  0  0  0  0  0
   27.6493    6.1629   -9.5437 H   0  0  0  0  0  0  0  0  0  0  0  0
   24.6178    9.1505   -8.8185 H   0  0  0  0  0  0  0  0  0  0  0  0
   25.9484   10.7849  -10.2825 H   0  0  0  0  0  0  0  0  0  0  0  0
   30.0975    7.3470  -11.4004 H   0  0  0  0  0  0  0  0  0  0  0  0
   31.1623    9.7345  -13.2208 H   0  0  0  0  0  0  0  0  0  0  0  0
   28.3165   14.1237  -12.0960 H   0  0  0  0  0  0  0  0  0  0  0  0
   29.2792   13.9611  -13.6038 H   0  0  0  0  0  0  0  0  0  0  0  0
   27.5325   13.5419  -13.6038 H   0  0  0  0  0  0  0  0  0  0  0  0
  1  2  1  0
  1  3  2  0
  2 12  1  0
  2  5  1  0
  3  4  1  0
  4  6  2  0
  5  7  2  0
  5  6  1  0
  7  8  1  0
  7  9  1  0
  8 13  1  0
  8 12  2  0
  9 10  2  0
 10 11  1  0
 10 14  1  0
 11 13  2  0
  1 15  1  0
  4 16  1  0
  6 17  1  0
 12 18  1  0
 13 19  1  0
 14 20  1  1
 14 21  1  0
 14 22  1  0
M  END
>  <Pose ID>  (196)
9

>  <Score>  (196)
-6.444178104400635

>  <smiles>  (196)
Cc1ncc2cn3cnccc3c2n1

$$$$

     RDKit          3D

 31 34  0  0  0  0  0  0  0  0999 V2000
   27.0460    8.4690   -9.5190 C   0  0  0  0  0  0  0  0  0  0  0  0
   27.1990    7.3620   -8.6910 N   0  0  0  0  0  0  0  0  0  0  0  0
   26.3470    7.1840   -7.6060 C   0  0  0  0  0  0  0  0  0  0  0  0
   25.3440    8.1120   -7.3490 C   0  0  0  0  0  0  0  0  0  0  0  0
   25.1900    9.2170   -8.1790 N   0  0  0  0  0  0  0  0  0  0  0  0
   26.0420    9.3960   -9.2630 C   0  0  0  0  0  0  0  0  0  0  0  0
   24.4070    8.0900   -6.3220 C   0  0  0  0  0  0  0  0  0  0  0  0
   24.3500    7.0460   -5.4070 C   0  0  0  0  0  0  0  0  0  0  0  0
   23.4940    9.1350   -6.2420 C   0  0  0  0  0  0  0  0  0  0  0  0
   23.3820    7.0440   -4.4140 N   0  0  0  0  0  0  0  0  0  0  0  0
   22.4670    8.0880   -4.3330 C   0  0  0  0  0  0  0  0  0  0  0  0
   23.9440    9.9460   -7.4780 N   0  0  0  0  0  0  0  0  0  0  0  0
   22.5220    9.1330   -5.2470 C   0  0  0  0  0  0  0  0  0  0  0  0
   27.9070    8.6490  -10.6150 C   0  0  0  0  0  0  0  0  0  0  0  0
   28.7640    9.7390  -10.7270 O   0  0  0  0  0  0  0  0  0  0  0  0
   28.0420    7.8350  -11.7030 N   0  0  0  0  0  0  0  0  0  0  0  0
   29.3910    9.5200  -11.9300 C   0  0  0  0  0  0  0  0  0  0  0  0
   28.9570    8.3580  -12.5490 C   0  0  0  0  0  0  0  0  0  0  0  0
   21.4130    8.0850   -3.2530 C   0  0  1  0  0  0  0  0  0  0  0  0
   30.4350   10.4420  -12.5110 C   0  0  1  0  0  0  0  0  0  0  0  0
   26.4668    6.3085   -6.9509 H   0  0  0  0  0  0  0  0  0  0  0  0
   25.9217   10.2713   -9.9183 H   0  0  0  0  0  0  0  0  0  0  0  0
   25.0736    6.2200   -5.4703 H   0  0  0  0  0  0  0  0  0  0  0  0
   21.7974    9.9582   -5.1838 H   0  0  0  0  0  0  0  0  0  0  0  0
   29.2854    7.9509  -13.5167 H   0  0  0  0  0  0  0  0  0  0  0  0
   21.8991    8.0864   -2.2662 H   0  0  0  0  0  0  0  0  0  0  0  0
   20.7832    8.9814   -3.3528 H   0  0  0  0  0  0  0  0  0  0  0  0
   20.7884    7.1851   -3.3528 H   0  0  0  0  0  0  0  0  0  0  0  0
   30.9879   10.9303  -11.6950 H   0  0  0  0  0  0  0  0  0  0  0  0
   31.1336    9.8607  -13.1307 H   0  0  0  0  0  0  0  0  0  0  0  0
   29.9445   11.2071  -13.1307 H   0  0  0  0  0  0  0  0  0  0  0  0
  1 14  1  0
  1  6  2  0
  1  2  1  0
  2  3  2  0
  3  4  1  0
  4  5  1  0
  4  7  2  0
  5  6  1  0
  5 12  1  0
  7  9  1  0
  7  8  1  0
  8 10  2  0
  9 12  2  0
  9 13  1  0
 10 11  1  0
 11 13  2  0
 11 19  1  0
 14 16  2  0
 14 15  1  0
 15 17  1  0
 16 18  1  0
 17 18  2  0
 17 20  1  0
  3 21  1  0
  6 22  1  0
  8 23  1  0
 13 24  1  0
 18 25  1  0
 19 26  1  1
 19 27  1  0
 19 28  1  0
 20 29  1  1
 20 30  1  0
 20 31  1  0
M  END
>  <Pose ID>  (197)
69

>  <Score>  (197)
-6.43015193939209

>  <smiles>  (197)
Cc1cc2nn3cc(-c4ncc(C)o4)ncc3c2cn1

$$$$

     RDKit          3D

 38 41  0  0  0  0  0  0  0  0999 V2000
   27.3210    7.9270  -10.2120 C   0  0  0  0  0  0  0  0  0  0  0  0
   28.4100    7.1590  -10.5950 C   0  0  0  0  0  0  0  0  0  0  0  0
   29.4040    7.7140  -11.3910 N   0  0  0  0  0  0  0  0  0  0  0  0
   26.5050    7.1860   -9.4460 N   0  0  0  0  0  0  0  0  0  0  0  0
   29.3100    9.0390  -11.8020 C   0  0  0  0  0  0  0  0  0  0  0  0
   28.2180    9.8060  -11.4180 C   0  0  0  0  0  0  0  0  0  0  0  0
   27.2230    9.2540  -10.6240 C   0  0  0  0  0  0  0  0  0  0  0  0
   30.1310    9.7860  -12.5590 N   0  0  0  0  0  0  0  0  0  0  0  0
   29.6410   10.9760  -12.6860 C   0  0  0  0  0  0  0  0  0  0  0  0
   28.4640   10.9490  -11.9480 C   0  0  0  0  0  0  0  0  0  0  0  0
   25.9360    7.6590   -8.2270 C   0  0  0  0  0  0  0  0  0  0  0  0
   25.2770    6.7490   -7.4080 N   0  0  0  0  0  0  0  0  0  0  0  0
   24.6070    7.1910   -6.2730 C   0  0  0  0  0  0  0  0  0  0  0  0
   24.5970    8.5450   -5.9580 C   0  0  0  0  0  0  0  0  0  0  0  0
   25.2550    9.4560   -6.7780 C   0  0  0  0  0  0  0  0  0  0  0  0
   25.9480    9.0060   -7.8960 C   0  0  0  0  0  0  0  0  0  0  0  0
   24.0190    6.3750   -5.5410 O   0  0  0  0  0  0  0  0  0  0  0  0
   30.0200   12.1400  -13.3450 C   0  0  0  0  0  0  0  0  0  0  0  0
   29.2220   13.2740  -13.2680 C   0  0  0  0  0  0  0  0  0  0  0  0
   28.0450   13.2470  -12.5290 N   0  0  0  0  0  0  0  0  0  0  0  0
   27.6320   12.0990  -11.8830 C   0  0  0  0  0  0  0  0  0  0  0  0
   25.2160   10.9300   -6.4550 C   0  0  1  0  0  0  0  0  0  0  0  0
   23.8720    9.0270   -4.7250 C   0  0  1  0  0  0  0  0  0  0  0  0
   28.4868    6.1113  -10.2689 H   0  0  0  0  0  0  0  0  0  0  0  0
   30.2120    7.1430  -11.6773 H   0  0  0  0  0  0  0  0  0  0  0  0
   26.2789    6.2294   -9.7536 H   0  0  0  0  0  0  0  0  0  0  0  0
   26.3587    9.8630  -10.3205 H   0  0  0  0  0  0  0  0  0  0  0  0
   25.2852    5.7461   -7.6425 H   0  0  0  0  0  0  0  0  0  0  0  0
   26.5069    9.7195   -8.5193 H   0  0  0  0  0  0  0  0  0  0  0  0
   30.9526   12.1628  -13.9278 H   0  0  0  0  0  0  0  0  0  0  0  0
   29.5214   14.1937  -13.7919 H   0  0  0  0  0  0  0  0  0  0  0  0
   26.6810   12.0751  -11.3308 H   0  0  0  0  0  0  0  0  0  0  0  0
   25.2124   11.0662   -5.3635 H   0  0  0  0  0  0  0  0  0  0  0  0
   26.1014   11.4227   -6.8831 H   0  0  0  0  0  0  0  0  0  0  0  0
   24.3058   11.3752   -6.8831 H   0  0  0  0  0  0  0  0  0  0  0  0
   24.4014    8.6751   -3.8273 H   0  0  0  0  0  0  0  0  0  0  0  0
   23.8404   10.1265   -4.7246 H   0  0  0  0  0  0  0  0  0  0  0  0
   22.8459    8.6307   -4.7246 H   0  0  0  0  0  0  0  0  0  0  0  0
  1  7  1  0
  1  2  2  0
  1  4  1  0
  2  3  1  0
  3  5  1  0
  5  8  2  0
  5  6  1  0
  6 10  1  0
  6  7  2  0
  8  9  1  0
  9 18  1  0
  9 10  2  0
 10 21  1  0
 18 19  2  0
 19 20  1  0
 20 21  2  0
  4 11  1  0
 11 16  2  0
 11 12  1  0
 12 13  1  0
 13 14  1  0
 13 17  2  0
 14 15  2  0
 14 23  1  0
 15 16  1  0
 15 22  1  0
  2 24  1  0
  3 25  1  0
  4 26  1  0
  7 27  1  0
 12 28  1  0
 16 29  1  0
 18 30  1  0
 19 31  1  0
 21 32  1  0
 22 33  1  1
 22 34  1  0
 22 35  1  0
 23 36  1  1
 23 37  1  0
 23 38  1  0
M  END
>  <Pose ID>  (198)
110

>  <Score>  (198)
-6.428884506225586

>  <smiles>  (198)
Cc1cc(Nc2c[nH]c3nc4ccncc4c-3c2)[nH]c(=O)c1C

$$$$

     RDKit          3D

 38 41  0  0  0  0  0  0  0  0999 V2000
   27.0740    8.1520   -9.9440 C   0  0  0  0  0  0  0  0  0  0  0  0
   27.7680    7.1680  -10.6330 C   0  0  0  0  0  0  0  0  0  0  0  0
   28.7750    7.5220  -11.5250 N   0  0  0  0  0  0  0  0  0  0  0  0
   29.0860    8.8620  -11.7260 C   0  0  0  0  0  0  0  0  0  0  0  0
   26.0550    7.6140   -9.0440 O   0  0  0  0  0  0  0  0  0  0  0  0
   28.3880    9.8470  -11.0360 C   0  0  0  0  0  0  0  0  0  0  0  0
   27.3820    9.4900  -10.1450 C   0  0  0  0  0  0  0  0  0  0  0  0
   30.0020    9.4470  -12.5200 N   0  0  0  0  0  0  0  0  0  0  0  0
   29.9150   10.8120  -12.3690 C   0  0  0  0  0  0  0  0  0  0  0  0
   28.8680   10.8960  -11.4250 C   0  0  0  0  0  0  0  0  0  0  0  0
   25.4290    8.3570   -8.0370 C   0  0  0  0  0  0  0  0  0  0  0  0
   24.9800    9.6250   -8.3710 N   0  0  0  0  0  0  0  0  0  0  0  0
   24.4270   10.1940   -7.2400 N   0  0  0  0  0  0  0  0  0  0  0  0
   24.5140    9.3100   -6.2350 C   0  0  0  0  0  0  0  0  0  0  0  0
   25.0960    8.2000   -6.7020 C   0  0  0  0  0  0  0  0  0  0  0  0
   23.9000   11.3420   -7.1470 C   0  0  0  0  0  0  0  0  0  0  0  0
   23.3490   11.6310   -5.9030 N   0  0  0  0  0  0  0  0  0  0  0  0
   24.0500   12.3490   -8.0920 C   0  0  0  0  0  0  0  0  0  0  0  0
   23.6490   13.6450   -7.7950 C   0  0  0  0  0  0  0  0  0  0  0  0
   23.0980   13.9350   -6.5530 C   0  0  0  0  0  0  0  0  0  0  0  0
   22.9900   12.9620   -5.6110 C   0  0  0  0  0  0  0  0  0  0  0  0
   25.3530    6.9550   -5.8910 C   0  0  1  0  0  0  0  0  0  0  0  0
   24.6460   12.0340   -9.4420 C   0  0  1  0  0  0  0  0  0  0  0  0
   27.5219    6.1077  -10.4739 H   0  0  0  0  0  0  0  0  0  0  0  0
   29.2902    6.7914  -12.0365 H   0  0  0  0  0  0  0  0  0  0  0  0
   26.8298   10.2690   -9.5989 H   0  0  0  0  0  0  0  0  0  0  0  0
   30.4972   11.6126  -12.8487 H   0  0  0  0  0  0  0  0  0  0  0  0
   28.5024   11.8662  -11.0575 H   0  0  0  0  0  0  0  0  0  0  0  0
   24.1664    9.4704   -5.2038 H   0  0  0  0  0  0  0  0  0  0  0  0
   23.7677   14.4423   -8.5435 H   0  0  0  0  0  0  0  0  0  0  0  0
   22.7485   14.9543   -6.3319 H   0  0  0  0  0  0  0  0  0  0  0  0
   22.6176   13.2164   -4.6077 H   0  0  0  0  0  0  0  0  0  0  0  0
   25.3027    7.1985   -4.8195 H   0  0  0  0  0  0  0  0  0  0  0  0
   24.5923    6.1976   -6.1310 H   0  0  0  0  0  0  0  0  0  0  0  0
   26.3515    6.5607   -6.1310 H   0  0  0  0  0  0  0  0  0  0  0  0
   25.6111   11.5239   -9.3067 H   0  0  0  0  0  0  0  0  0  0  0  0
   23.9610   11.3802  -10.0017 H   0  0  0  0  0  0  0  0  0  0  0  0
   24.8003   12.9683  -10.0017 H   0  0  0  0  0  0  0  0  0  0  0  0
 11  5  1  0
 11 12  2  0
 11 15  1  0
 12 13  1  0
 13 16  1  0
 13 14  1  0
 14 15  2  0
 15 22  1  0
 16 18  1  0
 16 17  2  0
 17 21  1  0
 18 23  1  0
 18 19  2  0
 19 20  1  0
 20 21  2  0
  5  1  1  0
  1  2  2  0
  1  7  1  0
  2  3  1  0
  3  4  1  0
  4  8  2  0
  4  6  1  0
  6 10  1  0
  6  7  2  0
  8  9  1  0
  9 10  2  0
  2 24  1  0
  3 25  1  0
  7 26  1  0
  9 27  1  0
 10 28  1  0
 14 29  1  0
 19 30  1  0
 20 31  1  0
 21 32  1  0
 22 33  1  1
 22 34  1  0
 22 35  1  0
 23 36  1  1
 23 37  1  0
 23 38  1  0
M  END
>  <Pose ID>  (199)
321

>  <Score>  (199)
-6.4225077629089355

>  <smiles>  (199)
Cc1cn(-c2ncccc2C)nc1Oc1c[nH]c2nccc-2c1

$$$$

     RDKit          3D

 35 38  0  0  0  0  0  0  0  0999 V2000
   26.8530    8.8440  -10.4600 C   0  0  0  0  0  0  0  0  0  0  0  0
   27.5890    7.6710  -10.3250 C   0  0  0  0  0  0  0  0  0  0  0  0
   28.8450    7.5680  -10.9120 N   0  0  0  0  0  0  0  0  0  0  0  0
   25.6100    9.2700  -10.0100 N   0  0  0  0  0  0  0  0  0  0  0  0
   29.3650    8.6340  -11.6350 C   0  0  0  0  0  0  0  0  0  0  0  0
   28.6290    9.8070  -11.7720 C   0  0  0  0  0  0  0  0  0  0  0  0
   27.3730    9.9100  -11.1840 C   0  0  0  0  0  0  0  0  0  0  0  0
   30.5350    8.7730  -12.2840 N   0  0  0  0  0  0  0  0  0  0  0  0
   30.5830   10.0240  -12.8530 C   0  0  0  0  0  0  0  0  0  0  0  0
   29.3290   10.5350  -12.4530 C   0  0  0  0  0  0  0  0  0  0  0  0
   25.2550    9.5310   -8.5960 C   0  0  0  0  0  0  0  0  0  0  0  0
   24.0320    9.9420   -8.0920 N   0  0  0  0  0  0  0  0  0  0  0  0
   23.8780   10.1850   -6.7310 C   0  0  0  0  0  0  0  0  0  0  0  0
   24.9510    9.9820   -5.8710 C   0  0  0  0  0  0  0  0  0  0  0  0
   26.1740    9.5560   -6.3720 C   0  0  0  0  0  0  0  0  0  0  0  0
   26.3260    9.3290   -7.7330 N   0  0  0  0  0  0  0  0  0  0  0  0
   27.1340    9.3780   -5.6000 O   0  0  0  0  0  0  0  0  0  0  0  0
   22.7680   10.6350   -5.9960 C   0  0  0  0  0  0  0  0  0  0  0  0
   23.1570   10.6740   -4.6780 C   0  0  0  0  0  0  0  0  0  0  0  0
   24.4080   10.3340   -4.6210 O   0  0  0  0  0  0  0  0  0  0  0  0
   22.2830   11.0450   -3.5050 C   0  0  1  0  0  0  0  0  0  0  0  0
   22.1010   12.5440   -3.5990 C   0  0  1  0  0  0  0  0  0  0  0  0
   27.1773    6.8256   -9.7541 H   0  0  0  0  0  0  0  0  0  0  0  0
   29.3906    6.7003  -10.8107 H   0  0  0  0  0  0  0  0  0  0  0  0
   24.8754    9.4163  -10.7170 H   0  0  0  0  0  0  0  0  0  0  0  0
   26.7903   10.8367  -11.2922 H   0  0  0  0  0  0  0  0  0  0  0  0
   31.3763   10.4948  -13.4521 H   0  0  0  0  0  0  0  0  0  0  0  0
   28.9995   11.5437  -12.7429 H   0  0  0  0  0  0  0  0  0  0  0  0
   27.2328    9.0107   -8.1036 H   0  0  0  0  0  0  0  0  0  0  0  0
   21.7797   10.9038   -6.3973 H   0  0  0  0  0  0  0  0  0  0  0  0
   21.3111   10.5342   -3.5722 H   0  0  0  0  0  0  0  0  0  0  0  0
   22.7346   10.7466   -2.5474 H   0  0  0  0  0  0  0  0  0  0  0  0
   22.0491   12.9713   -2.5867 H   0  0  0  0  0  0  0  0  0  0  0  0
   22.9524   12.9836   -4.1393 H   0  0  0  0  0  0  0  0  0  0  0  0
   21.1692   12.7671   -4.1393 H   0  0  0  0  0  0  0  0  0  0  0  0
  4  1  1  0
  4 11  1  0
 11 12  2  0
 11 16  1  0
 12 13  1  0
 13 18  1  0
 13 14  2  0
 14 15  1  0
 14 20  1  0
 15 16  1  0
 15 17  2  0
 18 19  2  0
 19 20  1  0
 19 21  1  0
  1  7  1  0
  1  2  2  0
  2  3  1  0
  3  5  1  0
  5  8  2  0
  5  6  1  0
  6 10  1  0
  6  7  2  0
  8  9  1  0
  9 10  2  0
 21 22  1  0
  2 23  1  0
  3 24  1  0
  4 25  1  0
  7 26  1  0
  9 27  1  0
 10 28  1  0
 16 29  1  0
 18 30  1  0
 21 31  1  6
 21 32  1  0
 22 33  1  1
 22 34  1  0
 22 35  1  0
M  END
>  <Pose ID>  (200)
19

>  <Score>  (200)
-6.415231704711914

>  <smiles>  (200)
CCc1cc2nc(Nc3c[nH]c4nccc-4c3)[nH]c(=O)c2o1

$$$$

     RDKit          3D

 35 38  0  0  0  0  0  0  0  0999 V2000
   27.3210    7.9280  -10.2120 C   0  0  0  0  0  0  0  0  0  0  0  0
   28.4090    7.1590  -10.5980 C   0  0  0  0  0  0  0  0  0  0  0  0
   29.4010    7.7140  -11.3950 N   0  0  0  0  0  0  0  0  0  0  0  0
   26.5060    7.1870   -9.4450 N   0  0  0  0  0  0  0  0  0  0  0  0
   29.3080    9.0400  -11.8050 C   0  0  0  0  0  0  0  0  0  0  0  0
   28.2170    9.8080  -11.4170 C   0  0  0  0  0  0  0  0  0  0  0  0
   27.2240    9.2550  -10.6220 C   0  0  0  0  0  0  0  0  0  0  0  0
   30.1280    9.7870  -12.5620 N   0  0  0  0  0  0  0  0  0  0  0  0
   29.6390   10.9780  -12.6870 C   0  0  0  0  0  0  0  0  0  0  0  0
   28.4630   10.9510  -11.9460 C   0  0  0  0  0  0  0  0  0  0  0  0
   25.9400    7.6590   -8.2240 C   0  0  0  0  0  0  0  0  0  0  0  0
   25.2820    6.7480   -7.4050 N   0  0  0  0  0  0  0  0  0  0  0  0
   24.6150    7.1900   -6.2680 C   0  0  0  0  0  0  0  0  0  0  0  0
   24.6070    8.5430   -5.9510 C   0  0  0  0  0  0  0  0  0  0  0  0
   25.2640    9.4550   -6.7710 C   0  0  0  0  0  0  0  0  0  0  0  0
   25.9540    9.0050   -7.8910 C   0  0  0  0  0  0  0  0  0  0  0  0
   24.0280    6.3730   -5.5350 O   0  0  0  0  0  0  0  0  0  0  0  0
   30.0170   12.1420  -13.3450 C   0  0  0  0  0  0  0  0  0  0  0  0
   29.2210   13.2770  -13.2650 C   0  0  0  0  0  0  0  0  0  0  0  0
   28.0450   13.2500  -12.5240 N   0  0  0  0  0  0  0  0  0  0  0  0
   27.6330   12.1020  -11.8780 C   0  0  0  0  0  0  0  0  0  0  0  0
   25.2270   10.9280   -6.4460 C   0  0  1  0  0  0  0  0  0  0  0  0
   28.4857    6.1109  -10.2731 H   0  0  0  0  0  0  0  0  0  0  0  0
   30.2079    7.1425  -11.6835 H   0  0  0  0  0  0  0  0  0  0  0  0
   26.2783    6.2310   -9.7532 H   0  0  0  0  0  0  0  0  0  0  0  0
   26.3608    9.8642  -10.3158 H   0  0  0  0  0  0  0  0  0  0  0  0
   25.2887    5.7454   -7.6408 H   0  0  0  0  0  0  0  0  0  0  0  0
   24.0807    8.8933   -5.0508 H   0  0  0  0  0  0  0  0  0  0  0  0
   26.5125    9.7186   -8.5146 H   0  0  0  0  0  0  0  0  0  0  0  0
   30.9482   12.1644  -13.9301 H   0  0  0  0  0  0  0  0  0  0  0  0
   29.5208   14.1972  -13.7878 H   0  0  0  0  0  0  0  0  0  0  0  0
   26.6835   12.0788  -11.3231 H   0  0  0  0  0  0  0  0  0  0  0  0
   25.2236   11.0626   -5.3543 H   0  0  0  0  0  0  0  0  0  0  0  0
   26.1131   11.4202   -6.8734 H   0  0  0  0  0  0  0  0  0  0  0  0
   24.3173   11.3751   -6.8734 H   0  0  0  0  0  0  0  0  0  0  0  0
  1  7  1  0
  1  2  2  0
  1  4  1  0
  2  3  1  0
  3  5  1  0
  5  8  2  0
  5  6  1  0
  6 10  1  0
  6  7  2  0
  8  9  1  0
  9 18  1  0
  9 10  2  0
 10 21  1  0
 18 19  2  0
 19 20  1  0
 20 21  2  0
  4 11  1  0
 11 16  2  0
 11 12  1  0
 12 13  1  0
 13 14  1  0
 13 17  2  0
 14 15  2  0
 15 16  1  0
 15 22  1  0
  2 23  1  0
  3 24  1  0
  4 25  1  0
  7 26  1  0
 12 27  1  0
 14 28  1  0
 16 29  1  0
 18 30  1  0
 19 31  1  0
 21 32  1  0
 22 33  1  1
 22 34  1  0
 22 35  1  0
M  END
>  <Pose ID>  (201)
105

>  <Score>  (201)
-6.40942907333374

>  <smiles>  (201)
Cc1cc(Nc2c[nH]c3nc4ccncc4c-3c2)[nH]c(=O)c1

$$$$

     RDKit          3D

 36 39  0  0  0  0  0  0  0  0999 V2000
   27.3490    7.9310  -10.1750 C   0  0  0  0  0  0  0  0  0  0  0  0
   28.4700    7.1790  -10.4890 C   0  0  0  0  0  0  0  0  0  0  0  0
   29.4490    7.7050  -11.3210 N   0  0  0  0  0  0  0  0  0  0  0  0
   26.5560    7.2220   -9.3550 N   0  0  0  0  0  0  0  0  0  0  0  0
   29.3070    8.9860  -11.8390 C   0  0  0  0  0  0  0  0  0  0  0  0
   28.1820    9.7400  -11.5250 C   0  0  0  0  0  0  0  0  0  0  0  0
   27.2040    9.2160  -10.6940 C   0  0  0  0  0  0  0  0  0  0  0  0
   30.1060    9.7000  -12.6530 N   0  0  0  0  0  0  0  0  0  0  0  0
   29.5210   10.9240  -12.8820 C   0  0  0  0  0  0  0  0  0  0  0  0
   28.3360   10.7880  -12.1270 C   0  0  0  0  0  0  0  0  0  0  0  0
   25.9590    7.7730   -8.1810 C   0  0  0  0  0  0  0  0  0  0  0  0
   25.3300    6.9080   -7.2940 N   0  0  0  0  0  0  0  0  0  0  0  0
   24.6340    7.4150   -6.2020 C   0  0  0  0  0  0  0  0  0  0  0  0
   24.5680    8.7880   -5.9990 C   0  0  0  0  0  0  0  0  0  0  0  0
   25.1970    9.6550   -6.8860 C   0  0  0  0  0  0  0  0  0  0  0  0
   25.9180    9.1420   -7.9610 C   0  0  0  0  0  0  0  0  0  0  0  0
   23.9290    6.7660   -5.1830 C   0  0  0  0  0  0  0  0  0  0  0  0
   23.5680    7.7550   -4.2960 N   0  0  0  0  0  0  0  0  0  0  0  0
   23.9360    8.9420   -4.6540 C   0  0  0  0  0  0  0  0  0  0  0  0
   23.7620   10.2200   -3.8750 C   0  0  1  0  0  0  0  0  0  0  0  0
   27.3080   11.8910  -12.0680 C   0  0  1  0  0  0  0  0  0  0  0  0
   28.5841    6.1648  -10.0788 H   0  0  0  0  0  0  0  0  0  0  0  0
   30.2813    7.1449  -11.5544 H   0  0  0  0  0  0  0  0  0  0  0  0
   26.3700    6.2351   -9.5837 H   0  0  0  0  0  0  0  0  0  0  0  0
   26.3148    9.8137  -10.4447 H   0  0  0  0  0  0  0  0  0  0  0  0
   29.8773   11.7721  -13.4852 H   0  0  0  0  0  0  0  0  0  0  0  0
   25.3793    5.8904   -7.4454 H   0  0  0  0  0  0  0  0  0  0  0  0
   25.1251   10.7427   -6.7387 H   0  0  0  0  0  0  0  0  0  0  0  0
   26.4558    9.8232   -8.6368 H   0  0  0  0  0  0  0  0  0  0  0  0
   23.7092    5.6909   -5.1065 H   0  0  0  0  0  0  0  0  0  0  0  0
   23.7920    9.9997   -2.7977 H   0  0  0  0  0  0  0  0  0  0  0  0
   24.5734   10.9178   -4.1293 H   0  0  0  0  0  0  0  0  0  0  0  0
   22.7936   10.6755   -4.1293 H   0  0  0  0  0  0  0  0  0  0  0  0
   27.0858   12.1294  -11.0174 H   0  0  0  0  0  0  0  0  0  0  0  0
   27.7014   12.7862  -12.5718 H   0  0  0  0  0  0  0  0  0  0  0  0
   26.3873   11.5615  -12.5718 H   0  0  0  0  0  0  0  0  0  0  0  0
  4  1  1  0
  4 11  1  0
  1  7  1  0
  1  2  2  0
  2  3  1  0
  3  5  1  0
  5  8  2  0
  5  6  1  0
  6 10  1  0
  6  7  2  0
  8  9  1  0
  9 10  2  0
 10 21  1  0
 11 16  2  0
 11 12  1  0
 12 13  1  0
 13 14  1  0
 13 17  2  0
 14 15  2  0
 14 19  1  0
 15 16  1  0
 17 18  1  0
 18 19  2  0
 19 20  1  0
  2 22  1  0
  3 23  1  0
  4 24  1  0
  7 25  1  0
  9 26  1  0
 12 27  1  0
 15 28  1  0
 16 29  1  0
 17 30  1  0
 20 31  1  1
 20 32  1  0
 20 33  1  0
 21 34  1  1
 21 35  1  0
 21 36  1  0
M  END
>  <Pose ID>  (202)
71

>  <Score>  (202)
-6.395810604095459

>  <smiles>  (202)
Cc1cnc2[nH]cc(Nc3ccc4c(C)ncc-4[nH]3)cc1-2

$$$$

     RDKit          3D

 35 38  0  0  0  0  0  0  0  0999 V2000
   26.8910    8.8370  -10.4660 C   0  0  0  0  0  0  0  0  0  0  0  0
   27.6010    7.6460  -10.3450 C   0  0  0  0  0  0  0  0  0  0  0  0
   28.8480    7.5180  -10.9470 N   0  0  0  0  0  0  0  0  0  0  0  0
   25.6630    9.2880  -10.0000 N   0  0  0  0  0  0  0  0  0  0  0  0
   29.3840    8.5760  -11.6720 C   0  0  0  0  0  0  0  0  0  0  0  0
   28.6730    9.7650  -11.7950 C   0  0  0  0  0  0  0  0  0  0  0  0
   27.4260    9.8920  -11.1920 C   0  0  0  0  0  0  0  0  0  0  0  0
   30.5480    8.6910  -12.3340 N   0  0  0  0  0  0  0  0  0  0  0  0
   30.6180    9.9430  -12.8990 C   0  0  0  0  0  0  0  0  0  0  0  0
   29.3800   10.4800  -12.4820 C   0  0  0  0  0  0  0  0  0  0  0  0
   25.3310    9.5500   -8.5800 C   0  0  0  0  0  0  0  0  0  0  0  0
   24.1230    9.9860   -8.0590 N   0  0  0  0  0  0  0  0  0  0  0  0
   23.9920   10.2270   -6.6970 C   0  0  0  0  0  0  0  0  0  0  0  0
   25.0690    9.9960   -5.8490 C   0  0  0  0  0  0  0  0  0  0  0  0
   26.2770    9.5440   -6.3670 C   0  0  0  0  0  0  0  0  0  0  0  0
   26.4070    9.3200   -7.7310 N   0  0  0  0  0  0  0  0  0  0  0  0
   27.2410    9.3420   -5.6070 O   0  0  0  0  0  0  0  0  0  0  0  0
   22.9000   10.6980   -5.9460 C   0  0  0  0  0  0  0  0  0  0  0  0
   23.3050   10.7210   -4.6330 C   0  0  0  0  0  0  0  0  0  0  0  0
   24.5490   10.3530   -4.5920 O   0  0  0  0  0  0  0  0  0  0  0  0
   28.9540   11.8760  -12.8670 C   0  0  1  0  0  0  0  0  0  0  0  0
   27.5620   11.9900  -13.4940 C   0  0  1  0  0  0  0  0  0  0  0  0
   27.1763    6.8072   -9.7740 H   0  0  0  0  0  0  0  0  0  0  0  0
   29.3753    6.6379  -10.8555 H   0  0  0  0  0  0  0  0  0  0  0  0
   24.9235    9.4537  -10.6976 H   0  0  0  0  0  0  0  0  0  0  0  0
   26.8622   10.8313  -11.2908 H   0  0  0  0  0  0  0  0  0  0  0  0
   31.4147   10.3984  -13.5055 H   0  0  0  0  0  0  0  0  0  0  0  0
   27.3018    8.9830   -8.1141 H   0  0  0  0  0  0  0  0  0  0  0  0
   21.9134   10.9910   -6.3343 H   0  0  0  0  0  0  0  0  0  0  0  0
   22.6844   11.0017   -3.7692 H   0  0  0  0  0  0  0  0  0  0  0  0
   28.9690   12.4975  -11.9595 H   0  0  0  0  0  0  0  0  0  0  0  0
   29.6624   12.2056  -13.6413 H   0  0  0  0  0  0  0  0  0  0  0  0
   26.8053   12.0520  -12.6980 H   0  0  0  0  0  0  0  0  0  0  0  0
   27.5136   12.8951  -14.1172 H   0  0  0  0  0  0  0  0  0  0  0  0
   27.3670   11.1048  -14.1172 H   0  0  0  0  0  0  0  0  0  0  0  0
  4  1  1  0
  4 11  1  0
 11 12  2  0
 11 16  1  0
 12 13  1  0
 13 18  1  0
 13 14  2  0
 14 15  1  0
 14 20  1  0
 15 16  1  0
 15 17  2  0
 18 19  2  0
 19 20  1  0
  1  7  1  0
  1  2  2  0
  2  3  1  0
  3  5  1  0
  5  8  2  0
  5  6  1  0
  6 10  1  0
  6  7  2  0
  8  9  1  0
  9 10  2  0
 10 21  1  0
 21 22  1  0
  2 23  1  0
  3 24  1  0
  4 25  1  0
  7 26  1  0
  9 27  1  0
 16 28  1  0
 18 29  1  0
 19 30  1  0
 21 31  1  1
 21 32  1  0
 22 33  1  1
 22 34  1  0
 22 35  1  0
M  END
>  <Pose ID>  (203)
26

>  <Score>  (203)
-6.387187480926514

>  <smiles>  (203)
CCc1cnc2[nH]cc(Nc3nc4ccoc4c(=O)[nH]3)cc1-2

$$$$

     RDKit          3D

 38 41  0  0  0  0  0  0  0  0999 V2000
   26.8530    8.8440  -10.4600 C   0  0  0  0  0  0  0  0  0  0  0  0
   27.5890    7.6710  -10.3250 C   0  0  0  0  0  0  0  0  0  0  0  0
   28.8450    7.5680  -10.9120 N   0  0  0  0  0  0  0  0  0  0  0  0
   25.6100    9.2700  -10.0100 N   0  0  0  0  0  0  0  0  0  0  0  0
   29.3650    8.6340  -11.6350 C   0  0  0  0  0  0  0  0  0  0  0  0
   28.6290    9.8070  -11.7720 C   0  0  0  0  0  0  0  0  0  0  0  0
   27.3730    9.9100  -11.1840 C   0  0  0  0  0  0  0  0  0  0  0  0
   30.5350    8.7730  -12.2840 N   0  0  0  0  0  0  0  0  0  0  0  0
   30.5830   10.0240  -12.8530 C   0  0  0  0  0  0  0  0  0  0  0  0
   29.3290   10.5350  -12.4530 C   0  0  0  0  0  0  0  0  0  0  0  0
   25.2550    9.5310   -8.5960 C   0  0  0  0  0  0  0  0  0  0  0  0
   24.0320    9.9420   -8.0920 N   0  0  0  0  0  0  0  0  0  0  0  0
   23.8780   10.1850   -6.7310 C   0  0  0  0  0  0  0  0  0  0  0  0
   24.9510    9.9820   -5.8710 C   0  0  0  0  0  0  0  0  0  0  0  0
   26.1740    9.5560   -6.3720 C   0  0  0  0  0  0  0  0  0  0  0  0
   26.3260    9.3290   -7.7330 N   0  0  0  0  0  0  0  0  0  0  0  0
   27.1340    9.3780   -5.6000 O   0  0  0  0  0  0  0  0  0  0  0  0
   22.7680   10.6350   -5.9960 C   0  0  0  0  0  0  0  0  0  0  0  0
   23.1570   10.6740   -4.6780 C   0  0  0  0  0  0  0  0  0  0  0  0
   24.4080   10.3340   -4.6210 O   0  0  0  0  0  0  0  0  0  0  0  0
   22.2830   11.0450   -3.5050 C   0  0  1  0  0  0  0  0  0  0  0  0
   22.1010   12.5440   -3.5990 C   0  0  1  0  0  0  0  0  0  0  0  0
   20.9230   10.3760   -3.6130 C   0  0  1  0  0  0  0  0  0  0  0  0
   27.1773    6.8256   -9.7541 H   0  0  0  0  0  0  0  0  0  0  0  0
   29.3906    6.7003  -10.8107 H   0  0  0  0  0  0  0  0  0  0  0  0
   24.8754    9.4163  -10.7170 H   0  0  0  0  0  0  0  0  0  0  0  0
   26.7903   10.8367  -11.2922 H   0  0  0  0  0  0  0  0  0  0  0  0
   31.3763   10.4948  -13.4521 H   0  0  0  0  0  0  0  0  0  0  0  0
   28.9995   11.5437  -12.7429 H   0  0  0  0  0  0  0  0  0  0  0  0
   27.2328    9.0107   -8.1036 H   0  0  0  0  0  0  0  0  0  0  0  0
   21.7797   10.9038   -6.3973 H   0  0  0  0  0  0  0  0  0  0  0  0
   22.7380   10.7272   -2.5553 H   0  0  0  0  0  0  0  0  0  0  0  0
   22.0491   12.9713   -2.5867 H   0  0  0  0  0  0  0  0  0  0  0  0
   22.9524   12.9836   -4.1393 H   0  0  0  0  0  0  0  0  0  0  0  0
   21.1692   12.7671   -4.1393 H   0  0  0  0  0  0  0  0  0  0  0  0
   20.5287   10.1820   -2.6046 H   0  0  0  0  0  0  0  0  0  0  0  0
   20.2314   11.0367   -4.1563 H   0  0  0  0  0  0  0  0  0  0  0  0
   21.0243    9.4249   -4.1563 H   0  0  0  0  0  0  0  0  0  0  0  0
  4  1  1  0
  4 11  1  0
 11 12  2  0
 11 16  1  0
 12 13  1  0
 13 18  1  0
 13 14  2  0
 14 15  1  0
 14 20  1  0
 15 16  1  0
 15 17  2  0
 18 19  2  0
 19 20  1  0
 19 21  1  0
  1  7  1  0
  1  2  2  0
  2  3  1  0
  3  5  1  0
  5  8  2  0
  5  6  1  0
  6 10  1  0
  6  7  2  0
  8  9  1  0
  9 10  2  0
 21 23  1  0
 21 22  1  0
  2 24  1  0
  3 25  1  0
  4 26  1  0
  7 27  1  0
  9 28  1  0
 10 29  1  0
 16 30  1  0
 18 31  1  0
 21 32  1  1
 22 33  1  1
 22 34  1  0
 22 35  1  0
 23 36  1  1
 23 37  1  0
 23 38  1  0
M  END
>  <Pose ID>  (204)
21

>  <Score>  (204)
-6.375659942626953

>  <smiles>  (204)
CC(C)c1cc2nc(Nc3c[nH]c4nccc-4c3)[nH]c(=O)c2o1

$$$$

     RDKit          3D

 33 36  0  0  0  0  0  0  0  0999 V2000
   27.3660    7.9900  -10.1580 C   0  0  0  0  0  0  0  0  0  0  0  0
   28.4480    7.1990  -10.5130 C   0  0  0  0  0  0  0  0  0  0  0  0
   29.4340    7.7070  -11.3500 N   0  0  0  0  0  0  0  0  0  0  0  0
   26.5590    7.2920   -9.3420 N   0  0  0  0  0  0  0  0  0  0  0  0
   29.3370    9.0070  -11.8300 C   0  0  0  0  0  0  0  0  0  0  0  0
   28.2520    9.7980  -11.4740 C   0  0  0  0  0  0  0  0  0  0  0  0
   27.2670    9.2930  -10.6380 C   0  0  0  0  0  0  0  0  0  0  0  0
   30.1510    9.7090  -12.6380 N   0  0  0  0  0  0  0  0  0  0  0  0
   29.6150   10.9630  -12.8230 C   0  0  0  0  0  0  0  0  0  0  0  0
   28.4400   10.8560  -12.0490 C   0  0  0  0  0  0  0  0  0  0  0  0
   26.0070    7.8340   -8.1420 C   0  0  0  0  0  0  0  0  0  0  0  0
   25.3570    6.9720   -7.2670 N   0  0  0  0  0  0  0  0  0  0  0  0
   24.7050    7.4770   -6.1480 C   0  0  0  0  0  0  0  0  0  0  0  0
   24.7020    8.8450   -5.9060 C   0  0  0  0  0  0  0  0  0  0  0  0
   25.3510    9.7090   -6.7810 C   0  0  0  0  0  0  0  0  0  0  0  0
   26.0290    9.1970   -7.8840 C   0  0  0  0  0  0  0  0  0  0  0  0
   23.9910    6.8300   -5.1350 C   0  0  0  0  0  0  0  0  0  0  0  0
   23.6890    7.8080   -4.2130 N   0  0  0  0  0  0  0  0  0  0  0  0
   24.1010    8.9880   -4.5470 C   0  0  0  0  0  0  0  0  0  0  0  0
   25.3200   11.1980   -6.5370 C   0  0  1  0  0  0  0  0  0  0  0  0
   28.5258    6.1699  -10.1323 H   0  0  0  0  0  0  0  0  0  0  0  0
   30.2374    7.1193  -11.6147 H   0  0  0  0  0  0  0  0  0  0  0  0
   26.3276    6.3204   -9.5937 H   0  0  0  0  0  0  0  0  0  0  0  0
   26.4093    9.9209  -10.3549 H   0  0  0  0  0  0  0  0  0  0  0  0
   29.9961   11.8116  -13.4101 H   0  0  0  0  0  0  0  0  0  0  0  0
   27.7265   11.6893  -11.9683 H   0  0  0  0  0  0  0  0  0  0  0  0
   25.3583    5.9580   -7.4478 H   0  0  0  0  0  0  0  0  0  0  0  0
   26.5826    9.8738   -8.5515 H   0  0  0  0  0  0  0  0  0  0  0  0
   23.7259    5.7636   -5.0847 H   0  0  0  0  0  0  0  0  0  0  0  0
   24.0241    9.9093   -3.9509 H   0  0  0  0  0  0  0  0  0  0  0  0
   25.3160   11.3921   -5.4543 H   0  0  0  0  0  0  0  0  0  0  0  0
   26.2087   11.6623   -6.9894 H   0  0  0  0  0  0  0  0  0  0  0  0
   24.4128   11.6249   -6.9894 H   0  0  0  0  0  0  0  0  0  0  0  0
  4  1  1  0
  4 11  1  0
 11 16  2  0
 11 12  1  0
 12 13  1  0
 13 14  1  0
 13 17  2  0
 14 15  2  0
 14 19  1  0
 15 16  1  0
 15 20  1  0
 17 18  1  0
 18 19  2  0
  1  7  1  0
  1  2  2  0
  2  3  1  0
  3  5  1  0
  5  8  2  0
  5  6  1  0
  6 10  1  0
  6  7  2  0
  8  9  1  0
  9 10  2  0
  2 21  1  0
  3 22  1  0
  4 23  1  0
  7 24  1  0
  9 25  1  0
 10 26  1  0
 12 27  1  0
 16 28  1  0
 17 29  1  0
 19 30  1  0
 20 31  1  1
 20 32  1  0
 20 33  1  0
M  END
>  <Pose ID>  (205)
38

>  <Score>  (205)
-6.364577293395996

>  <smiles>  (205)
Cc1cc(Nc2c[nH]c3nccc-3c2)[nH]c2cncc1-2

$$$$

     RDKit          3D

 38 41  0  0  0  0  0  0  0  0999 V2000
   27.0710    8.3630   -9.9280 C   0  0  0  0  0  0  0  0  0  0  0  0
   27.6160    7.2580  -10.5680 C   0  0  0  0  0  0  0  0  0  0  0  0
   28.6440    7.4250  -11.4880 N   0  0  0  0  0  0  0  0  0  0  0  0
   29.1300    8.6960  -11.7680 C   0  0  0  0  0  0  0  0  0  0  0  0
   26.0090    8.0190   -8.9870 O   0  0  0  0  0  0  0  0  0  0  0  0
   28.5810    9.8040  -11.1250 C   0  0  0  0  0  0  0  0  0  0  0  0
   27.5550    9.6360  -10.2040 C   0  0  0  0  0  0  0  0  0  0  0  0
   30.1030    9.1100  -12.6040 N   0  0  0  0  0  0  0  0  0  0  0  0
   30.2020   10.4800  -12.5260 C   0  0  0  0  0  0  0  0  0  0  0  0
   29.1930   10.7570  -11.5770 C   0  0  0  0  0  0  0  0  0  0  0  0
   25.5060    8.8920   -8.0150 C   0  0  0  0  0  0  0  0  0  0  0  0
   25.2260   10.1870   -8.4160 N   0  0  0  0  0  0  0  0  0  0  0  0
   24.7750   10.8870   -7.3120 N   0  0  0  0  0  0  0  0  0  0  0  0
   24.7620   10.0540   -6.2600 C   0  0  0  0  0  0  0  0  0  0  0  0
   25.1810    8.8540   -6.6710 C   0  0  0  0  0  0  0  0  0  0  0  0
   24.4070   12.1690   -7.3090 C   0  0  0  0  0  0  0  0  0  0  0  0
   24.4480   12.9630   -8.4480 C   0  0  0  0  0  0  0  0  0  0  0  0
   23.6840   12.5850   -6.1980 N   0  0  0  0  0  0  0  0  0  0  0  0
   23.7670   14.1740   -8.4770 C   0  0  0  0  0  0  0  0  0  0  0  0
   23.0020   13.7970   -6.2260 C   0  0  0  0  0  0  0  0  0  0  0  0
   23.0180   14.5900   -7.3760 C   0  0  0  0  0  0  0  0  0  0  0  0
   24.3440   10.4120   -4.8550 C   0  0  1  0  0  0  0  0  0  0  0  0
   23.8380   15.0440   -9.7070 C   0  0  1  0  0  0  0  0  0  0  0  0
   27.2341    6.2504  -10.3468 H   0  0  0  0  0  0  0  0  0  0  0  0
   29.0465    6.6047  -11.9633 H   0  0  0  0  0  0  0  0  0  0  0  0
   27.1257   10.5105   -9.6932 H   0  0  0  0  0  0  0  0  0  0  0  0
   30.8782   11.1677  -13.0550 H   0  0  0  0  0  0  0  0  0  0  0  0
   28.9693   11.7863  -11.2599 H   0  0  0  0  0  0  0  0  0  0  0  0
   25.2568    7.9622   -6.0315 H   0  0  0  0  0  0  0  0  0  0  0  0
   25.0200   12.6329   -9.3277 H   0  0  0  0  0  0  0  0  0  0  0  0
   22.4470   14.1329   -5.3377 H   0  0  0  0  0  0  0  0  0  0  0  0
   22.4476   15.5299   -7.4129 H   0  0  0  0  0  0  0  0  0  0  0  0
   24.9759    9.8708   -4.1353 H   0  0  0  0  0  0  0  0  0  0  0  0
   24.4600   11.4952   -4.7027 H   0  0  0  0  0  0  0  0  0  0  0  0
   23.2915   10.1309   -4.7027 H   0  0  0  0  0  0  0  0  0  0  0  0
   23.9241   16.0985   -9.4058 H   0  0  0  0  0  0  0  0  0  0  0  0
   24.7160   14.7610  -10.3061 H   0  0  0  0  0  0  0  0  0  0  0  0
   22.9257   14.9071  -10.3061 H   0  0  0  0  0  0  0  0  0  0  0  0
 11  5  1  0
 11 12  2  0
 11 15  1  0
 12 13  1  0
 13 16  1  0
 13 14  1  0
 14 15  2  0
 14 22  1  0
 16 17  2  0
 16 18  1  0
 17 19  1  0
 18 20  2  0
 19 23  1  0
 19 21  2  0
 20 21  1  0
  5  1  1  0
  1  2  2  0
  1  7  1  0
  2  3  1  0
  3  4  1  0
  4  8  2  0
  4  6  1  0
  6 10  1  0
  6  7  2  0
  8  9  1  0
  9 10  2  0
  2 24  1  0
  3 25  1  0
  7 26  1  0
  9 27  1  0
 10 28  1  0
 15 29  1  0
 17 30  1  0
 20 31  1  0
 21 32  1  0
 22 33  1  1
 22 34  1  0
 22 35  1  0
 23 36  1  1
 23 37  1  0
 23 38  1  0
M  END
>  <Pose ID>  (206)
446

>  <Score>  (206)
-6.3627705574035645

>  <smiles>  (206)
Cc1ccnc(-n2nc(Oc3c[nH]c4nccc-4c3)cc2C)c1

$$$$

     RDKit          3D

 36 39  0  0  0  0  0  0  0  0999 V2000
   27.4030    8.0300  -10.3020 C   0  0  0  0  0  0  0  0  0  0  0  0
   28.4360    7.2210  -10.7480 C   0  0  0  0  0  0  0  0  0  0  0  0
   29.4300    7.7480  -11.5620 N   0  0  0  0  0  0  0  0  0  0  0  0
   26.5770    7.3050   -9.5290 N   0  0  0  0  0  0  0  0  0  0  0  0
   29.3900    9.0890  -11.9290 C   0  0  0  0  0  0  0  0  0  0  0  0
   28.3540    9.8990  -11.4820 C   0  0  0  0  0  0  0  0  0  0  0  0
   27.3600    9.3720  -10.6680 C   0  0  0  0  0  0  0  0  0  0  0  0
   30.2230    9.8170  -12.6920 N   0  0  0  0  0  0  0  0  0  0  0  0
   29.7460   11.1070  -12.7580 C   0  0  0  0  0  0  0  0  0  0  0  0
   28.5840   10.9930  -11.9660 C   0  0  0  0  0  0  0  0  0  0  0  0
   26.0760    7.7670   -8.2750 C   0  0  0  0  0  0  0  0  0  0  0  0
   25.4010    6.8660   -7.4610 N   0  0  0  0  0  0  0  0  0  0  0  0
   24.7970    7.3030   -6.2880 C   0  0  0  0  0  0  0  0  0  0  0  0
   24.8680    8.6450   -5.9300 C   0  0  0  0  0  0  0  0  0  0  0  0
   25.5440    9.5480   -6.7450 C   0  0  0  0  0  0  0  0  0  0  0  0
   26.1720    9.1000   -7.9020 C   0  0  0  0  0  0  0  0  0  0  0  0
   24.1920    6.4950   -5.5600 O   0  0  0  0  0  0  0  0  0  0  0  0
   25.7340   10.9360   -6.6210 C   0  0  0  0  0  0  0  0  0  0  0  0
   26.3950   11.7320   -7.4060 N   0  0  0  0  0  0  0  0  0  0  0  0
   26.2100   13.0090   -6.8210 O   0  0  0  0  0  0  0  0  0  0  0  0
   25.1030   11.6560   -5.5130 C   0  0  0  0  0  0  0  0  0  0  0  0
   25.5220   12.9910   -5.7790 C   0  0  0  0  0  0  0  0  0  0  0  0
   25.1860   14.1940   -4.9330 C   0  0  1  0  0  0  0  0  0  0  0  0
   28.4686    6.1607  -10.4570 H   0  0  0  0  0  0  0  0  0  0  0  0
   30.1969    7.1458  -11.8940 H   0  0  0  0  0  0  0  0  0  0  0  0
   26.2918    6.3712   -9.8571 H   0  0  0  0  0  0  0  0  0  0  0  0
   26.5403   10.0140  -10.3132 H   0  0  0  0  0  0  0  0  0  0  0  0
   30.1566   11.9826  -13.2822 H   0  0  0  0  0  0  0  0  0  0  0  0
   27.9175   11.8510  -11.7938 H   0  0  0  0  0  0  0  0  0  0  0  0
   25.3481    5.8724   -7.7272 H   0  0  0  0  0  0  0  0  0  0  0  0
   24.3897    8.9927   -5.0025 H   0  0  0  0  0  0  0  0  0  0  0  0
   26.7460    9.8037   -8.5227 H   0  0  0  0  0  0  0  0  0  0  0  0
   24.4753   11.2702   -4.6962 H   0  0  0  0  0  0  0  0  0  0  0  0
   25.2608   13.9262   -3.8687 H   0  0  0  0  0  0  0  0  0  0  0  0
   25.8911   15.0081   -5.1567 H   0  0  0  0  0  0  0  0  0  0  0  0
   24.1611   14.5249   -5.1567 H   0  0  0  0  0  0  0  0  0  0  0  0
 11  4  1  0
 11 16  2  0
 11 12  1  0
 12 13  1  0
 13 14  1  0
 13 17  2  0
 14 15  2  0
 15 16  1  0
 15 18  1  0
 18 19  2  0
 18 21  1  0
 19 20  1  0
 20 22  1  0
 21 22  2  0
 22 23  1  0
  4  1  1  0
  1  2  2  0
  1  7  1  0
  2  3  1  0
  3  5  1  0
  5  8  2  0
  5  6  1  0
  6 10  1  0
  6  7  2  0
  8  9  1  0
  9 10  2  0
  2 24  1  0
  3 25  1  0
  4 26  1  0
  7 27  1  0
  9 28  1  0
 10 29  1  0
 12 30  1  0
 14 31  1  0
 16 32  1  0
 21 33  1  0
 23 34  1  1
 23 35  1  0
 23 36  1  0
M  END
>  <Pose ID>  (207)
128

>  <Score>  (207)
-6.359581470489502

>  <smiles>  (207)
Cc1cc(-c2cc(Nc3c[nH]c4nccc-4c3)[nH]c(=O)c2)no1

$$$$

     RDKit          3D

 38 41  0  0  0  0  0  0  0  0999 V2000
   27.0510    8.5300  -10.1420 C   0  0  0  0  0  0  0  0  0  0  0  0
   27.8400    7.4500  -10.5110 C   0  0  0  0  0  0  0  0  0  0  0  0
   28.9480    7.6430  -11.3270 N   0  0  0  0  0  0  0  0  0  0  0  0
   29.2700    8.9190  -11.7740 C   0  0  0  0  0  0  0  0  0  0  0  0
   25.9320    8.1640   -9.2790 O   0  0  0  0  0  0  0  0  0  0  0  0
   28.4790   10.0030  -11.4060 C   0  0  0  0  0  0  0  0  0  0  0  0
   27.3720    9.8080  -10.5870 C   0  0  0  0  0  0  0  0  0  0  0  0
   30.2730    9.3520  -12.5590 N   0  0  0  0  0  0  0  0  0  0  0  0
   30.1850   10.5960  -12.7130 C   0  0  0  0  0  0  0  0  0  0  0  0
   29.0660   11.0420  -12.0200 C   0  0  0  0  0  0  0  0  0  0  0  0
   25.1760    9.0800   -8.5400 C   0  0  0  0  0  0  0  0  0  0  0  0
   24.7610   10.2270   -9.1960 N   0  0  0  0  0  0  0  0  0  0  0  0
   24.0610   11.0040   -8.2910 N   0  0  0  0  0  0  0  0  0  0  0  0
   24.0270   10.3590   -7.1150 C   0  0  0  0  0  0  0  0  0  0  0  0
   24.6770    9.2000   -7.2560 C   0  0  0  0  0  0  0  0  0  0  0  0
   23.5020   12.2730   -8.6830 C   0  0  1  0  0  0  0  0  0  0  0  0
   30.9660   11.4970  -13.4280 C   0  0  0  0  0  0  0  0  0  0  0  0
   30.6290   12.8460  -13.4480 C   0  0  0  0  0  0  0  0  0  0  0  0
   29.5100   13.2930  -12.7530 C   0  0  0  0  0  0  0  0  0  0  0  0
   28.7300   12.3910  -12.0400 C   0  0  0  0  0  0  0  0  0  0  0  0
   24.2490   13.5120   -8.1640 C   0  0  1  0  0  0  0  0  0  0  0  0
   24.8430    8.1680   -6.1680 C   0  0  1  0  0  0  0  0  0  0  0  0
   27.5880    6.4395  -10.1570 H   0  0  0  0  0  0  0  0  0  0  0  0
   29.5313    6.8395  -11.6009 H   0  0  0  0  0  0  0  0  0  0  0  0
   26.7497   10.6654  -10.2909 H   0  0  0  0  0  0  0  0  0  0  0  0
   23.5470   10.7216   -6.1940 H   0  0  0  0  0  0  0  0  0  0  0  0
   23.4962   12.3161   -9.7821 H   0  0  0  0  0  0  0  0  0  0  0  0
   22.4990   12.3138   -8.2332 H   0  0  0  0  0  0  0  0  0  0  0  0
   31.8504   11.1428  -13.9778 H   0  0  0  0  0  0  0  0  0  0  0  0
   31.2470   13.5593  -14.0131 H   0  0  0  0  0  0  0  0  0  0  0  0
   29.2428   14.3600  -12.7679 H   0  0  0  0  0  0  0  0  0  0  0  0
   27.8452   12.7447  -11.4904 H   0  0  0  0  0  0  0  0  0  0  0  0
   24.2464   13.5077   -7.0640 H   0  0  0  0  0  0  0  0  0  0  0  0
   25.2868   13.4938   -8.5283 H   0  0  0  0  0  0  0  0  0  0  0  0
   23.7484   14.4213   -8.5283 H   0  0  0  0  0  0  0  0  0  0  0  0
   24.7646    8.6556   -5.1851 H   0  0  0  0  0  0  0  0  0  0  0  0
   24.0560    7.4054   -6.2628 H   0  0  0  0  0  0  0  0  0  0  0  0
   25.8295    7.6906   -6.2628 H   0  0  0  0  0  0  0  0  0  0  0  0
  1  7  1  0
  1  2  2  0
  1  5  1  0
  2  3  1  0
  3  4  1  0
  4  8  2  0
  4  6  1  0
  6 10  1  0
  6  7  2  0
  8  9  1  0
  9 17  1  0
  9 10  2  0
 10 20  1  0
 17 18  2  0
 18 19  1  0
 19 20  2  0
  5 11  1  0
 11 12  2  0
 11 15  1  0
 12 13  1  0
 13 16  1  0
 13 14  1  0
 14 15  2  0
 15 22  1  0
 16 21  1  0
  2 23  1  0
  3 24  1  0
  7 25  1  0
 14 26  1  0
 16 27  1  6
 16 28  1  0
 17 29  1  0
 18 30  1  0
 19 31  1  0
 20 32  1  0
 21 33  1  1
 21 34  1  0
 21 35  1  0
 22 36  1  1
 22 37  1  0
 22 38  1  0
M  END
>  <Pose ID>  (208)
506

>  <Score>  (208)
-6.357567310333252

>  <smiles>  (208)
CCn1cc(C)c(Oc2c[nH]c3nc4ccccc4c-3c2)n1

$$$$

     RDKit          3D

 35 38  0  0  0  0  0  0  0  0999 V2000
   27.0230    8.3820   -9.8320 C   0  0  0  0  0  0  0  0  0  0  0  0
   27.5370    7.2950  -10.5250 C   0  0  0  0  0  0  0  0  0  0  0  0
   28.5240    7.4850  -11.4860 N   0  0  0  0  0  0  0  0  0  0  0  0
   28.9980    8.7630  -11.7530 C   0  0  0  0  0  0  0  0  0  0  0  0
   26.0040    8.0140   -8.8550 O   0  0  0  0  0  0  0  0  0  0  0  0
   28.4800    9.8540  -11.0580 C   0  0  0  0  0  0  0  0  0  0  0  0
   27.4950    9.6610  -10.0970 C   0  0  0  0  0  0  0  0  0  0  0  0
   29.9320    9.1980  -12.6220 N   0  0  0  0  0  0  0  0  0  0  0  0
   30.0370   10.5660  -12.5130 C   0  0  0  0  0  0  0  0  0  0  0  0
   29.0720   10.8180  -11.5120 C   0  0  0  0  0  0  0  0  0  0  0  0
   25.5460    8.8610   -7.8390 C   0  0  0  0  0  0  0  0  0  0  0  0
   25.2490   10.1670   -8.1930 N   0  0  0  0  0  0  0  0  0  0  0  0
   24.8490   10.8370   -7.0520 N   0  0  0  0  0  0  0  0  0  0  0  0
   24.8820    9.9780   -6.0230 C   0  0  0  0  0  0  0  0  0  0  0  0
   25.2810    8.7890   -6.4830 C   0  0  0  0  0  0  0  0  0  0  0  0
   24.4830   12.1180   -6.9990 C   0  0  0  0  0  0  0  0  0  0  0  0
   24.4740   12.9420   -8.1180 C   0  0  0  0  0  0  0  0  0  0  0  0
   23.8110   12.5060   -5.8460 N   0  0  0  0  0  0  0  0  0  0  0  0
   23.7940   14.1530   -8.0850 C   0  0  0  0  0  0  0  0  0  0  0  0
   23.1300   13.7180   -5.8120 C   0  0  0  0  0  0  0  0  0  0  0  0
   23.0950   14.5410   -6.9410 C   0  0  0  0  0  0  0  0  0  0  0  0
   22.3130   15.8310   -6.9220 C   0  0  1  0  0  0  0  0  0  0  0  0
   27.1633    6.2822  -10.3139 H   0  0  0  0  0  0  0  0  0  0  0  0
   28.9038    6.6774  -12.0002 H   0  0  0  0  0  0  0  0  0  0  0  0
   27.0888   10.5219   -9.5457 H   0  0  0  0  0  0  0  0  0  0  0  0
   30.6896   11.2671  -13.0539 H   0  0  0  0  0  0  0  0  0  0  0  0
   28.8643   11.8386  -11.1582 H   0  0  0  0  0  0  0  0  0  0  0  0
   24.6247   10.2121   -4.9794 H   0  0  0  0  0  0  0  0  0  0  0  0
   25.3842    7.8812   -5.8704 H   0  0  0  0  0  0  0  0  0  0  0  0
   25.0058   12.6351   -9.0307 H   0  0  0  0  0  0  0  0  0  0  0  0
   23.8066   14.8106   -8.9667 H   0  0  0  0  0  0  0  0  0  0  0  0
   22.6159   14.0307   -4.8912 H   0  0  0  0  0  0  0  0  0  0  0  0
   22.1297   16.1334   -5.8804 H   0  0  0  0  0  0  0  0  0  0  0  0
   22.8876   16.6157   -7.4359 H   0  0  0  0  0  0  0  0  0  0  0  0
   21.3515   15.6845   -7.4359 H   0  0  0  0  0  0  0  0  0  0  0  0
 11  5  1  0
 11 12  2  0
 11 15  1  0
 12 13  1  0
 13 16  1  0
 13 14  1  0
 14 15  2  0
 16 17  2  0
 16 18  1  0
 17 19  1  0
 18 20  2  0
 19 21  2  0
 20 21  1  0
 21 22  1  0
  5  1  1  0
  1  2  2  0
  1  7  1  0
  2  3  1  0
  3  4  1  0
  4  8  2  0
  4  6  1  0
  6 10  1  0
  6  7  2  0
  8  9  1  0
  9 10  2  0
  2 23  1  0
  3 24  1  0
  7 25  1  0
  9 26  1  0
 10 27  1  0
 14 28  1  0
 15 29  1  0
 17 30  1  0
 19 31  1  0
 20 32  1  0
 22 33  1  1
 22 34  1  0
 22 35  1  0
M  END
>  <Pose ID>  (209)
443

>  <Score>  (209)
-6.340306758880615

>  <smiles>  (209)
Cc1ccc(-n2ccc(Oc3c[nH]c4nccc-4c3)n2)nc1

$$$$

     RDKit          3D

 34 36  0  0  0  0  0  0  0  0999 V2000
   26.1410    9.4090   -8.7900 C   0  0  0  0  0  0  0  0  0  0  0  0
   25.6710   10.6980   -8.5100 N   0  0  0  0  0  0  0  0  0  0  0  0
   25.8050    8.2500   -8.0920 N   0  0  0  0  0  0  0  0  0  0  0  0
   26.3530    7.0310   -8.4750 C   0  0  0  0  0  0  0  0  0  0  0  0
   27.2340    6.9660   -9.5440 N   0  0  0  0  0  0  0  0  0  0  0  0
   27.5550    8.1100  -10.2290 C   0  0  0  0  0  0  0  0  0  0  0  0
   27.1220    9.4080   -9.9900 C   0  0  0  0  0  0  0  0  0  0  0  0
   24.4490   11.1930   -9.1570 C   0  0  1  0  0  0  0  0  0  0  0  0
   23.9990   12.4530   -8.8730 C   0  0  0  0  0  0  0  0  0  0  0  0
   26.7480   11.4290   -7.8580 C   0  0  1  0  0  0  0  0  0  0  0  0
   26.2170   12.2890   -6.6320 C   0  0  1  0  0  0  0  0  0  0  0  0
   25.1660   13.3040   -7.1280 C   0  0  1  0  0  0  0  0  0  0  0  0
   24.8190   13.4370   -8.3870 N   0  0  0  0  0  0  0  0  0  0  0  0
   22.7260   12.8090   -9.0450 O   0  0  0  0  0  0  0  0  0  0  0  0
   28.4410    7.8510  -11.2670 C   0  0  0  0  0  0  0  0  0  0  0  0
   28.8950    8.8930  -12.0680 N   0  0  0  0  0  0  0  0  0  0  0  0
   28.4630   10.1910  -11.8310 C   0  0  0  0  0  0  0  0  0  0  0  0
   27.5760   10.4490  -10.7910 C   0  0  0  0  0  0  0  0  0  0  0  0
   28.9550   11.3210  -12.7000 C   0  0  1  0  0  0  0  0  0  0  0  0
   26.0867    6.1146   -7.9280 H   0  0  0  0  0  0  0  0  0  0  0  0
   24.6229   11.1526  -10.2424 H   0  0  0  0  0  0  0  0  0  0  0  0
   23.6608   10.5404   -8.7534 H   0  0  0  0  0  0  0  0  0  0  0  0
   27.4959   10.7103   -7.4918 H   0  0  0  0  0  0  0  0  0  0  0  0
   27.1895   12.1173   -8.5937 H   0  0  0  0  0  0  0  0  0  0  0  0
   25.7583   11.6213   -5.8879 H   0  0  0  0  0  0  0  0  0  0  0  0
   27.0583   12.8292   -6.1732 H   0  0  0  0  0  0  0  0  0  0  0  0
   24.2394   13.0650   -6.5855 H   0  0  0  0  0  0  0  0  0  0  0  0
   25.6892   14.2552   -6.9504 H   0  0  0  0  0  0  0  0  0  0  0  0
   25.1402   14.2247   -8.9678 H   0  0  0  0  0  0  0  0  0  0  0  0
   28.7831    6.8226  -11.4551 H   0  0  0  0  0  0  0  0  0  0  0  0
   27.2338   11.4773  -10.6025 H   0  0  0  0  0  0  0  0  0  0  0  0
   29.3132   12.1437  -12.0637 H   0  0  0  0  0  0  0  0  0  0  0  0
   29.7788   10.9632  -13.3351 H   0  0  0  0  0  0  0  0  0  0  0  0
   28.1319   11.6803  -13.3351 H   0  0  0  0  0  0  0  0  0  0  0  0
  1  7  1  0
  1  2  1  0
  1  3  2  0
  2  8  1  0
  2 10  1  0
  3  4  1  0
  4  5  2  0
  5  6  1  0
  6 15  1  0
  6  7  2  0
  7 18  1  0
  8  9  1  0
  9 14  2  0
  9 13  1  0
 10 11  1  0
 11 12  1  0
 12 13  1  0
 15 16  2  0
 16 17  1  0
 17 19  1  0
 17 18  2  0
  4 20  1  0
  8 21  1  6
  8 22  1  0
 10 23  1  1
 10 24  1  0
 11 25  1  1
 11 26  1  0
 12 27  1  1
 12 28  1  0
 13 29  1  0
 15 30  1  0
 18 31  1  0
 19 32  1  1
 19 33  1  0
 19 34  1  0
M  END
>  <Pose ID>  (210)
46

>  <Score>  (210)
-6.3297271728515625

>  <smiles>  (210)
Cc1cc2c(N3CCCNC(=O)C3)ncnc2cn1

$$$$

     RDKit          3D

 31 33  0  0  0  0  0  0  0  0999 V2000
   28.2750    9.8100  -11.4840 C   0  0  0  0  0  0  0  0  0  0  0  0
   28.9950    8.6260  -11.3650 C   0  0  0  0  0  0  0  0  0  0  0  0
   28.5490    7.5650  -10.5910 N   0  0  0  0  0  0  0  0  0  0  0  0
   27.3220    7.6660   -9.9460 C   0  0  0  0  0  0  0  0  0  0  0  0
   26.5610    8.8220  -10.0780 C   0  0  0  0  0  0  0  0  0  0  0  0
   27.0180    9.8600  -10.8660 C   0  0  0  0  0  0  0  0  0  0  0  0
   26.9050    6.7240   -9.2560 O   0  0  0  0  0  0  0  0  0  0  0  0
   30.2260    8.4970  -11.9990 N   0  0  0  0  0  0  0  0  0  0  0  0
   30.7320    9.5470  -12.7540 C   0  0  0  0  0  0  0  0  0  0  0  0
   30.0100   10.7290  -12.8730 C   0  0  0  0  0  0  0  0  0  0  0  0
   28.7770   10.8580  -12.2260 C   0  0  0  0  0  0  0  0  0  0  0  0
   25.3470    9.1660   -9.5390 N   0  0  0  0  0  0  0  0  0  0  0  0
   25.1310    9.2320   -8.0620 C   0  0  0  0  0  0  0  0  0  0  0  0
   24.4300    8.1920   -7.4640 C   0  0  0  0  0  0  0  0  0  0  0  0
   24.1960    8.2090   -6.0940 C   0  0  0  0  0  0  0  0  0  0  0  0
   24.6640    9.2680   -5.3230 C   0  0  0  0  0  0  0  0  0  0  0  0
   25.3630   10.3080   -5.9210 C   0  0  0  0  0  0  0  0  0  0  0  0
   25.5970   10.2910   -7.2910 N   0  0  0  0  0  0  0  0  0  0  0  0
   24.4120    9.2860   -3.8360 C   0  0  1  0  0  0  0  0  0  0  0  0
   29.1199    6.7130  -10.4954 H   0  0  0  0  0  0  0  0  0  0  0  0
   26.3816   10.7453  -11.0118 H   0  0  0  0  0  0  0  0  0  0  0  0
   31.7043    9.4434  -13.2580 H   0  0  0  0  0  0  0  0  0  0  0  0
   30.4073   11.5601  -13.4742 H   0  0  0  0  0  0  0  0  0  0  0  0
   28.2077   11.7955  -12.3091 H   0  0  0  0  0  0  0  0  0  0  0  0
   24.5629    9.3848  -10.1700 H   0  0  0  0  0  0  0  0  0  0  0  0
   24.0602    7.3552   -8.0748 H   0  0  0  0  0  0  0  0  0  0  0  0
   23.6413    7.3858   -5.6200 H   0  0  0  0  0  0  0  0  0  0  0  0
   25.7316   11.1455   -5.3105 H   0  0  0  0  0  0  0  0  0  0  0  0
   25.3706    9.2175   -3.3008 H   0  0  0  0  0  0  0  0  0  0  0  0
   23.9048   10.2227   -3.5614 H   0  0  0  0  0  0  0  0  0  0  0  0
   23.7768    8.4309   -3.5614 H   0  0  0  0  0  0  0  0  0  0  0  0
  1 11  1  0
  1  2  2  0
  1  6  1  0
  2  8  1  0
  2  3  1  0
  3  4  1  0
  4  5  1  0
  4  7  2  0
  5  6  2  0
  5 12  1  0
  8  9  2  0
  9 10  1  0
 10 11  2  0
 12 13  1  0
 13 14  2  0
 13 18  1  0
 14 15  1  0
 15 16  2  0
 16 17  1  0
 16 19  1  0
 17 18  2  0
  3 20  1  0
  6 21  1  0
  9 22  1  0
 10 23  1  0
 11 24  1  0
 12 25  1  0
 14 26  1  0
 15 27  1  0
 17 28  1  0
 19 29  1  1
 19 30  1  0
 19 31  1  0
M  END
>  <Pose ID>  (211)
150

>  <Score>  (211)
-6.326322078704834

>  <smiles>  (211)
Cc1ccc(Nc2cc3cccnc3[nH]c2=O)nc1

$$$$

     RDKit          3D

 39 41  0  0  0  0  0  0  0  0999 V2000
   28.8340    9.4670  -11.9750 C   0  0  0  0  0  0  0  0  0  0  0  0
   29.4780    8.2670  -11.7280 C   0  0  0  0  0  0  0  0  0  0  0  0
   28.9360    7.3660  -10.8210 N   0  0  0  0  0  0  0  0  0  0  0  0
   27.7650    7.6780  -10.1420 C   0  0  0  0  0  0  0  0  0  0  0  0
   27.6700    9.7950  -11.2810 C   0  0  0  0  0  0  0  0  0  0  0  0
   27.1310    8.8910  -10.3730 C   0  0  0  0  0  0  0  0  0  0  0  0
   27.0640    6.9780   -9.2300 N   0  0  0  0  0  0  0  0  0  0  0  0
   25.9680    7.7220   -8.8510 C   0  0  0  0  0  0  0  0  0  0  0  0
   26.1580    8.8780   -9.6370 C   0  0  0  0  0  0  0  0  0  0  0  0
   24.9040    7.5880   -7.9920 N   0  0  0  0  0  0  0  0  0  0  0  0
   24.7270    8.3410   -6.8230 C   0  0  0  0  0  0  0  0  0  0  0  0
   24.0650    9.5600   -6.8960 C   0  0  0  0  0  0  0  0  0  0  0  0
   23.8800   10.3210   -5.7480 C   0  0  0  0  0  0  0  0  0  0  0  0
   24.3590    9.8610   -4.5260 C   0  0  0  0  0  0  0  0  0  0  0  0
   25.0230    8.6420   -4.4530 N   0  0  0  0  0  0  0  0  0  0  0  0
   25.2060    7.8830   -5.6030 C   0  0  0  0  0  0  0  0  0  0  0  0
   23.2040   11.4700   -6.0720 N   0  0  0  0  0  0  0  0  0  0  0  0
   23.7920   12.7790   -5.8680 C   0  0  0  0  0  0  0  0  0  0  0  0
   24.9340   12.9050   -5.5530 O   0  0  0  0  0  0  0  0  0  0  0  0
   22.7970   13.8580   -6.0730 C   0  0  1  0  0  0  0  0  0  0  0  0
   21.9660   14.2410   -4.8000 C   0  0  1  0  0  0  0  0  0  0  0  0
   26.9980   11.1250  -11.5150 C   0  0  1  0  0  0  0  0  0  0  0  0
   29.2419   10.1644  -12.7215 H   0  0  0  0  0  0  0  0  0  0  0  0
   30.4168    8.0277  -12.2489 H   0  0  0  0  0  0  0  0  0  0  0  0
   29.4034    6.4640  -10.6513 H   0  0  0  0  0  0  0  0  0  0  0  0
   25.4614    9.7280   -9.5886 H   0  0  0  0  0  0  0  0  0  0  0  0
   24.1869    6.8857   -8.2230 H   0  0  0  0  0  0  0  0  0  0  0  0
   23.6870    9.9232   -7.8631 H   0  0  0  0  0  0  0  0  0  0  0  0
   24.2123   10.4623   -3.6166 H   0  0  0  0  0  0  0  0  0  0  0  0
   25.7311    6.9181   -5.5464 H   0  0  0  0  0  0  0  0  0  0  0  0
   22.2563   11.4008   -6.4696 H   0  0  0  0  0  0  0  0  0  0  0  0
   23.3325   14.7562   -6.4143 H   0  0  0  0  0  0  0  0  0  0  0  0
   22.0746   13.4754   -6.8090 H   0  0  0  0  0  0  0  0  0  0  0  0
   22.5364   13.9781   -3.8970 H   0  0  0  0  0  0  0  0  0  0  0  0
   21.7652   15.3225   -4.8049 H   0  0  0  0  0  0  0  0  0  0  0  0
   21.0133   13.6911   -4.8049 H   0  0  0  0  0  0  0  0  0  0  0  0
   26.7621   11.5919  -10.5473 H   0  0  0  0  0  0  0  0  0  0  0  0
   27.6726   11.7815  -12.0842 H   0  0  0  0  0  0  0  0  0  0  0  0
   26.0693   10.9715  -12.0842 H   0  0  0  0  0  0  0  0  0  0  0  0
 10  8  1  0
 10 11  1  0
  1  2  2  0
  1  5  1  0
  2  3  1  0
  3  4  1  0
  4  6  1  0
  4  7  2  0
  5 22  1  0
  5  6  2  0
  6  9  1  0
  7  8  1  0
  8  9  2  0
 11 12  2  0
 11 16  1  0
 12 13  1  0
 13 17  1  0
 13 14  2  0
 14 15  1  0
 15 16  2  0
 17 18  1  0
 18 20  1  0
 18 19  2  0
 20 21  1  0
  1 23  1  0
  2 24  1  0
  3 25  1  0
  9 26  1  0
 10 27  1  0
 12 28  1  0
 14 29  1  0
 16 30  1  0
 17 31  1  0
 20 32  1  6
 20 33  1  0
 21 34  1  1
 21 35  1  0
 21 36  1  0
 22 37  1  1
 22 38  1  0
 22 39  1  0
M  END
>  <Pose ID>  (212)
218

>  <Score>  (212)
-6.321919918060303

>  <smiles>  (212)
CCC(=O)Nc1cncc(Nc2cc3c(C)cc[nH]c-3n2)c1

$$$$

     RDKit          3D

 39 41  0  0  0  0  0  0  0  0999 V2000
   28.7880    9.6190  -11.9490 C   0  0  0  0  0  0  0  0  0  0  0  0
   29.4510    8.4160  -11.7890 C   0  0  0  0  0  0  0  0  0  0  0  0
   28.9250    7.4450  -10.9480 N   0  0  0  0  0  0  0  0  0  0  0  0
   27.7490    7.6870  -10.2500 C   0  0  0  0  0  0  0  0  0  0  0  0
   27.6190    9.8800  -11.2340 C   0  0  0  0  0  0  0  0  0  0  0  0
   27.0960    8.9040  -10.3930 C   0  0  0  0  0  0  0  0  0  0  0  0
   27.0590    6.9140   -9.3910 N   0  0  0  0  0  0  0  0  0  0  0  0
   25.9520    7.6110   -8.9600 C   0  0  0  0  0  0  0  0  0  0  0  0
   26.1240    8.8230   -9.6620 C   0  0  0  0  0  0  0  0  0  0  0  0
   24.8910    7.3970   -8.1150 N   0  0  0  0  0  0  0  0  0  0  0  0
   24.7010    8.0630   -6.8940 C   0  0  0  0  0  0  0  0  0  0  0  0
   24.0190    9.2730   -6.8810 C   0  0  0  0  0  0  0  0  0  0  0  0
   23.8230    9.9460   -5.6810 C   0  0  0  0  0  0  0  0  0  0  0  0
   24.3090    9.4080   -4.4950 C   0  0  0  0  0  0  0  0  0  0  0  0
   24.9930    8.1970   -4.5090 N   0  0  0  0  0  0  0  0  0  0  0  0
   25.1880    7.5260   -5.7110 C   0  0  0  0  0  0  0  0  0  0  0  0
   23.1290   11.1050   -5.9230 N   0  0  0  0  0  0  0  0  0  0  0  0
   23.6960   12.4050   -5.6240 C   0  0  0  0  0  0  0  0  0  0  0  0
   24.8360   12.5270   -5.3000 O   0  0  0  0  0  0  0  0  0  0  0  0
   22.6830   13.4810   -5.7520 C   0  0  1  0  0  0  0  0  0  0  0  0
   23.0490   14.6850   -4.8190 C   0  0  1  0  0  0  0  0  0  0  0  0
   24.0950   10.1380   -3.1920 C   0  0  1  0  0  0  0  0  0  0  0  0
   29.1845   10.3741  -12.6437 H   0  0  0  0  0  0  0  0  0  0  0  0
   30.3923    8.2291  -12.3265 H   0  0  0  0  0  0  0  0  0  0  0  0
   29.4086    6.5419  -10.8413 H   0  0  0  0  0  0  0  0  0  0  0  0
   27.1140   10.8520  -11.3349 H   0  0  0  0  0  0  0  0  0  0  0  0
   25.4138    9.6561   -9.5545 H   0  0  0  0  0  0  0  0  0  0  0  0
   24.1865    6.7003   -8.3963 H   0  0  0  0  0  0  0  0  0  0  0  0
   23.6344    9.6982   -7.8198 H   0  0  0  0  0  0  0  0  0  0  0  0
   25.7290    6.5683   -5.7241 H   0  0  0  0  0  0  0  0  0  0  0  0
   22.1830   11.0497   -6.3266 H   0  0  0  0  0  0  0  0  0  0  0  0
   22.6510   13.8271   -6.7956 H   0  0  0  0  0  0  0  0  0  0  0  0
   21.7003   13.0847   -5.4565 H   0  0  0  0  0  0  0  0  0  0  0  0
   22.9550   14.3758   -3.7675 H   0  0  0  0  0  0  0  0  0  0  0  0
   24.0838   15.0011   -5.0172 H   0  0  0  0  0  0  0  0  0  0  0  0
   22.3652   15.5235   -5.0172 H   0  0  0  0  0  0  0  0  0  0  0  0
   24.2949    9.4559   -2.3525 H   0  0  0  0  0  0  0  0  0  0  0  0
   24.7789   10.9978   -3.1368 H   0  0  0  0  0  0  0  0  0  0  0  0
   23.0551   10.4925   -3.1368 H   0  0  0  0  0  0  0  0  0  0  0  0
 11 10  1  0
 11 12  2  0
 11 16  1  0
 12 13  1  0
 13 17  1  0
 13 14  2  0
 14 15  1  0
 14 22  1  0
 15 16  2  0
 17 18  1  0
 18 20  1  0
 18 19  2  0
 20 21  1  0
 10  8  1  0
  1  2  2  0
  1  5  1  0
  2  3  1  0
  3  4  1  0
  4  6  1  0
  4  7  2  0
  5  6  2  0
  6  9  1  0
  7  8  1  0
  8  9  2  0
  1 23  1  0
  2 24  1  0
  3 25  1  0
  5 26  1  0
  9 27  1  0
 10 28  1  0
 12 29  1  0
 16 30  1  0
 17 31  1  0
 20 32  1  6
 20 33  1  0
 21 34  1  1
 21 35  1  0
 21 36  1  0
 22 37  1  1
 22 38  1  0
 22 39  1  0
M  END
>  <Pose ID>  (213)
222

>  <Score>  (213)
-6.319549083709717

>  <smiles>  (213)
CCC(=O)Nc1cc(Nc2cc3ccc[nH]c-3n2)cnc1C

$$$$

     RDKit          3D

 36 39  0  0  0  0  0  0  0  0999 V2000
   27.0240    8.3350   -9.9580 C   0  0  0  0  0  0  0  0  0  0  0  0
   27.7010    7.2960  -10.5830 C   0  0  0  0  0  0  0  0  0  0  0  0
   28.7250    7.5750  -11.4800 N   0  0  0  0  0  0  0  0  0  0  0  0
   29.0730    8.8920  -11.7510 C   0  0  0  0  0  0  0  0  0  0  0  0
   25.9830    7.8760   -9.0410 O   0  0  0  0  0  0  0  0  0  0  0  0
   28.3920    9.9340  -11.1260 C   0  0  0  0  0  0  0  0  0  0  0  0
   27.3690    9.6520  -10.2290 C   0  0  0  0  0  0  0  0  0  0  0  0
   30.0120    9.4070  -12.5680 N   0  0  0  0  0  0  0  0  0  0  0  0
   29.9580   10.7790  -12.4930 C   0  0  0  0  0  0  0  0  0  0  0  0
   28.9050   10.9470  -11.5680 C   0  0  0  0  0  0  0  0  0  0  0  0
   25.3670    8.6900   -8.0830 C   0  0  0  0  0  0  0  0  0  0  0  0
   24.9530    9.9470   -8.4950 N   0  0  0  0  0  0  0  0  0  0  0  0
   24.4060   10.5910   -7.4030 N   0  0  0  0  0  0  0  0  0  0  0  0
   24.4560    9.7640   -6.3500 C   0  0  0  0  0  0  0  0  0  0  0  0
   25.0160    8.6170   -6.7450 C   0  0  0  0  0  0  0  0  0  0  0  0
   23.9360   11.7520   -7.4140 C   0  0  0  0  0  0  0  0  0  0  0  0
   23.3320   12.4050   -6.3460 N   0  0  0  0  0  0  0  0  0  0  0  0
   24.0590   12.3920   -8.6410 C   0  0  0  0  0  0  0  0  0  0  0  0
   23.5770   13.6850   -8.8010 C   0  0  0  0  0  0  0  0  0  0  0  0
   22.9750   14.3400   -7.7330 C   0  0  0  0  0  0  0  0  0  0  0  0
   22.8670   13.7650   -6.5700 C   0  0  0  0  0  0  0  0  0  0  0  0
   22.3530   14.3950   -5.6280 O   0  0  0  0  0  0  0  0  0  0  0  0
   30.7920   11.8170  -13.2020 C   0  0  1  0  0  0  0  0  0  0  0  0
   27.4268    6.2526  -10.3681 H   0  0  0  0  0  0  0  0  0  0  0  0
   29.2264    6.8044  -11.9443 H   0  0  0  0  0  0  0  0  0  0  0  0
   26.8317   10.4737   -9.7329 H   0  0  0  0  0  0  0  0  0  0  0  0
   28.5633   11.9463  -11.2604 H   0  0  0  0  0  0  0  0  0  0  0  0
   24.0977    9.9904   -5.3349 H   0  0  0  0  0  0  0  0  0  0  0  0
   25.1755    7.7403   -6.1000 H   0  0  0  0  0  0  0  0  0  0  0  0
   23.2181   11.9441   -5.4319 H   0  0  0  0  0  0  0  0  0  0  0  0
   24.5379   11.8750   -9.4856 H   0  0  0  0  0  0  0  0  0  0  0  0
   23.6718   14.1907   -9.7733 H   0  0  0  0  0  0  0  0  0  0  0  0
   22.5843   15.3588   -7.8725 H   0  0  0  0  0  0  0  0  0  0  0  0
   31.3000   12.4493  -12.4589 H   0  0  0  0  0  0  0  0  0  0  0  0
   31.5422   11.3168  -13.8320 H   0  0  0  0  0  0  0  0  0  0  0  0
   30.1419   12.4419  -13.8320 H   0  0  0  0  0  0  0  0  0  0  0  0
 11  5  1  0
 11 12  2  0
 11 15  1  0
 12 13  1  0
 13 16  1  0
 13 14  1  0
 14 15  2  0
 16 18  2  0
 16 17  1  0
 17 21  1  0
 18 19  1  0
 19 20  2  0
 20 21  1  0
 21 22  2  0
  5  1  1  0
  1  2  2  0
  1  7  1  0
  2  3  1  0
  3  4  1  0
  4  8  2  0
  4  6  1  0
  6 10  1  0
  6  7  2  0
  8  9  1  0
  9 23  1  0
  9 10  2  0
  2 24  1  0
  3 25  1  0
  7 26  1  0
 10 27  1  0
 14 28  1  0
 15 29  1  0
 17 30  1  0
 18 31  1  0
 19 32  1  0
 20 33  1  0
 23 34  1  1
 23 35  1  0
 23 36  1  0
M  END
>  <Pose ID>  (214)
237

>  <Score>  (214)
-6.313910007476807

>  <smiles>  (214)
Cc1cc2cc(Oc3ccn(-c4cccc(=O)[nH]4)n3)c[nH]c-2n1

$$$$

     RDKit          3D

 26 29  0  0  0  0  0  0  0  0999 V2000
   28.5300   11.8910  -11.5800 C   0  0  0  0  0  0  0  0  0  0  0  0
   28.2200   10.6470  -11.1110 N   0  0  0  0  0  0  0  0  0  0  0  0
   27.1380   10.3420  -10.2930 C   0  0  0  0  0  0  0  0  0  0  0  0
   27.6730   12.9290  -11.2300 C   0  0  0  0  0  0  0  0  0  0  0  0
   27.0540    9.0750  -10.0030 N   0  0  0  0  0  0  0  0  0  0  0  0
   26.4620   12.6530  -10.3280 C   0  0  0  0  0  0  0  0  0  0  0  0
   26.2610   11.3460   -9.9020 C   0  0  0  0  0  0  0  0  0  0  0  0
   27.9260   14.2200  -11.6750 C   0  0  0  0  0  0  0  0  0  0  0  0
   29.0380   14.4750  -12.4700 N   0  0  0  0  0  0  0  0  0  0  0  0
   29.8940   13.4410  -12.8210 C   0  0  0  0  0  0  0  0  0  0  0  0
   29.6270   12.1410  -12.3880 C   0  0  0  0  0  0  0  0  0  0  0  0
   26.0360    8.6240   -9.2070 C   0  0  0  0  0  0  0  0  0  0  0  0
   27.9280    8.0220  -10.4280 N   0  0  0  0  0  0  0  0  0  0  0  0
   26.2440    7.2750   -9.1320 C   0  0  0  0  0  0  0  0  0  0  0  0
   27.4120    6.9530   -9.8750 C   0  0  0  0  0  0  0  0  0  0  0  0
   30.6100   11.2740  -12.9010 C   0  0  0  0  0  0  0  0  0  0  0  0
   31.5270   12.0650  -13.6840 C   0  0  0  0  0  0  0  0  0  0  0  0
   31.1000   13.2890  -13.5570 O   0  0  0  0  0  0  0  0  0  0  0  0
   25.7779   13.4611  -10.0296 H   0  0  0  0  0  0  0  0  0  0  0  0
   25.4055   11.1056   -9.2537 H   0  0  0  0  0  0  0  0  0  0  0  0
   27.2472   15.0403  -11.3988 H   0  0  0  0  0  0  0  0  0  0  0  0
   25.2346    9.2120   -8.7358 H   0  0  0  0  0  0  0  0  0  0  0  0
   25.6124    6.5579   -8.5872 H   0  0  0  0  0  0  0  0  0  0  0  0
   27.8278    5.9393   -9.9727 H   0  0  0  0  0  0  0  0  0  0  0  0
   30.6683   10.1882  -12.7346 H   0  0  0  0  0  0  0  0  0  0  0  0
   32.3949   11.7127  -14.2608 H   0  0  0  0  0  0  0  0  0  0  0  0
  1 11  1  0
  1  4  1  0
  1  2  2  0
  2  3  1  0
  3  5  1  0
  3  7  2  0
  4  8  1  0
  4  6  2  0
  6  7  1  0
  8  9  2  0
  9 10  1  0
 10 18  1  0
 10 11  2  0
 11 16  1  0
 16 17  2  0
 17 18  1  0
  5 13  1  0
  5 12  1  0
 12 14  2  0
 13 15  2  0
 14 15  1  0
  6 19  1  0
  7 20  1  0
  8 21  1  0
 12 22  1  0
 14 23  1  0
 15 24  1  0
 16 25  1  0
 17 26  1  0
M  END
>  <Pose ID>  (215)
94

>  <Score>  (215)
-6.310115814208984

>  <smiles>  (215)
c1cnn(-c2ccc3cnc4occc4c3n2)c1

$$$$

     RDKit          3D

 38 41  0  0  0  0  0  0  0  0999 V2000
   27.9590    7.8790  -10.4340 C   0  0  0  0  0  0  0  0  0  0  0  0
   28.7790    7.0960  -11.2380 C   0  0  0  0  0  0  0  0  0  0  0  0
   29.6700    7.6990  -12.1180 N   0  0  0  0  0  0  0  0  0  0  0  0
   29.7440    9.0840  -12.1930 C   0  0  0  0  0  0  0  0  0  0  0  0
   27.0870    7.0980   -9.5630 O   0  0  0  0  0  0  0  0  0  0  0  0
   28.9210    9.8690  -11.3910 C   0  0  0  0  0  0  0  0  0  0  0  0
   28.0320    9.2650  -10.5100 C   0  0  0  0  0  0  0  0  0  0  0  0
   30.5130    9.8870  -12.9530 N   0  0  0  0  0  0  0  0  0  0  0  0
   30.2070   11.2000  -12.6660 C   0  0  0  0  0  0  0  0  0  0  0  0
   29.2030   11.0150  -11.6880 C   0  0  0  0  0  0  0  0  0  0  0  0
   26.3930    7.6260   -8.4670 C   0  0  0  0  0  0  0  0  0  0  0  0
   25.7250    8.8240   -8.6640 N   0  0  0  0  0  0  0  0  0  0  0  0
   25.1350    9.1830   -7.4670 N   0  0  0  0  0  0  0  0  0  0  0  0
   25.4130    8.2380   -6.5570 C   0  0  0  0  0  0  0  0  0  0  0  0
   26.1520    7.2910   -7.1480 C   0  0  0  0  0  0  0  0  0  0  0  0
   24.4280   10.2760   -7.3250 C   0  0  0  0  0  0  0  0  0  0  0  0
   23.8050   10.7160   -6.1640 C   0  0  0  0  0  0  0  0  0  0  0  0
   24.3700   11.0490   -8.4790 C   0  0  0  0  0  0  0  0  0  0  0  0
   23.6900   12.2600   -8.4720 N   0  0  0  0  0  0  0  0  0  0  0  0
   23.1240   11.9270   -6.1560 C   0  0  0  0  0  0  0  0  0  0  0  0
   23.0880   12.7060   -7.3060 C   0  0  0  0  0  0  0  0  0  0  0  0
   28.5130   12.1900  -11.0400 C   0  0  1  0  0  0  0  0  0  0  0  0
   28.3620   13.3450  -11.9960 C   0  0  1  0  0  0  0  0  0  0  0  0
   28.7228    5.9991  -11.1778 H   0  0  0  0  0  0  0  0  0  0  0  0
   30.2760    7.1183  -12.7151 H   0  0  0  0  0  0  0  0  0  0  0  0
   27.3850    9.8848   -9.8718 H   0  0  0  0  0  0  0  0  0  0  0  0
   30.6256   12.1289  -13.0806 H   0  0  0  0  0  0  0  0  0  0  0  0
   25.0894    8.2405   -5.5057 H   0  0  0  0  0  0  0  0  0  0  0  0
   26.5152    6.3774   -6.6546 H   0  0  0  0  0  0  0  0  0  0  0  0
   23.8509   10.1052   -5.2503 H   0  0  0  0  0  0  0  0  0  0  0  0
   24.8632   10.7012   -9.3986 H   0  0  0  0  0  0  0  0  0  0  0  0
   22.6151   12.2679   -5.2423 H   0  0  0  0  0  0  0  0  0  0  0  0
   22.5793   13.6812   -7.2909 H   0  0  0  0  0  0  0  0  0  0  0  0
   27.5150   11.8748  -10.7014 H   0  0  0  0  0  0  0  0  0  0  0  0
   29.1295   12.5248  -10.1928 H   0  0  0  0  0  0  0  0  0  0  0  0
   28.2400   14.2784  -11.4269 H   0  0  0  0  0  0  0  0  0  0  0  0
   29.2585   13.4163  -12.6295 H   0  0  0  0  0  0  0  0  0  0  0  0
   27.4773   13.1834  -12.6295 H   0  0  0  0  0  0  0  0  0  0  0  0
  1  2  2  0
  1  7  1  0
  1  5  1  0
  2  3  1  0
  3  4  1  0
  4  8  2  0
  4  6  1  0
  6 10  1  0
  6  7  2  0
  8  9  1  0
  9 10  2  0
 10 22  1  0
 22 23  1  0
  5 11  1  0
 11 12  2  0
 11 15  1  0
 12 13  1  0
 13 16  1  0
 13 14  1  0
 14 15  2  0
 16 18  1  0
 16 17  2  0
 17 20  1  0
 18 19  2  0
 19 21  1  0
 20 21  2  0
  2 24  1  0
  3 25  1  0
  7 26  1  0
  9 27  1  0
 14 28  1  0
 15 29  1  0
 17 30  1  0
 18 31  1  0
 20 32  1  0
 21 33  1  0
 22 34  1  1
 22 35  1  0
 23 36  1  1
 23 37  1  0
 23 38  1  0
M  END
>  <Pose ID>  (216)
424

>  <Score>  (216)
-6.308838844299316

>  <smiles>  (216)
CCc1cnc2[nH]cc(Oc3ccn(-c4cccnc4)n3)cc1-2

$$$$

     RDKit          3D

 38 40  0  0  0  0  0  0  0  0999 V2000
   28.2590    9.9530  -11.4940 C   0  0  0  0  0  0  0  0  0  0  0  0
   29.0120    8.7870  -11.4040 C   0  0  0  0  0  0  0  0  0  0  0  0
   28.6070    7.7030  -10.6410 N   0  0  0  0  0  0  0  0  0  0  0  0
   27.3860    7.7610   -9.9760 C   0  0  0  0  0  0  0  0  0  0  0  0
   26.5930    8.8980  -10.0800 C   0  0  0  0  0  0  0  0  0  0  0  0
   27.0090    9.9590  -10.8580 C   0  0  0  0  0  0  0  0  0  0  0  0
   27.0050    6.7980   -9.2950 O   0  0  0  0  0  0  0  0  0  0  0  0
   30.2370    8.7010  -12.0570 N   0  0  0  0  0  0  0  0  0  0  0  0
   30.7020    9.7760  -12.8040 C   0  0  0  0  0  0  0  0  0  0  0  0
   29.9490   10.9390  -12.8940 C   0  0  0  0  0  0  0  0  0  0  0  0
   28.7220   11.0260  -12.2280 C   0  0  0  0  0  0  0  0  0  0  0  0
   25.3790    9.2010   -9.5180 N   0  0  0  0  0  0  0  0  0  0  0  0
   25.1810    9.2380   -8.0390 C   0  0  0  0  0  0  0  0  0  0  0  0
   24.5180    8.1700   -7.4450 C   0  0  0  0  0  0  0  0  0  0  0  0
   24.3030    8.1600   -6.0730 C   0  0  0  0  0  0  0  0  0  0  0  0
   24.7540    9.2190   -5.2930 C   0  0  0  0  0  0  0  0  0  0  0  0
   25.4160   10.2870   -5.8830 C   0  0  0  0  0  0  0  0  0  0  0  0
   25.6300   10.2970   -7.2580 N   0  0  0  0  0  0  0  0  0  0  0  0
   27.8070   12.0510  -12.1500 O   0  0  0  0  0  0  0  0  0  0  0  0
   28.2260   13.3810  -12.7140 C   0  0  1  0  0  0  0  0  0  0  0  0
   24.5230    9.2080   -3.8020 C   0  0  1  0  0  0  0  0  0  0  0  0
   23.0830    9.6840   -3.5110 C   0  0  1  0  0  0  0  0  0  0  0  0
   29.2020    6.8655  -10.5672 H   0  0  0  0  0  0  0  0  0  0  0  0
   26.3461   10.8280  -10.9820 H   0  0  0  0  0  0  0  0  0  0  0  0
   31.6682    9.7057  -13.3250 H   0  0  0  0  0  0  0  0  0  0  0  0
   30.3162   11.7894  -13.4872 H   0  0  0  0  0  0  0  0  0  0  0  0
   24.5806    9.4091  -10.1346 H   0  0  0  0  0  0  0  0  0  0  0  0
   24.1632    7.3317   -8.0626 H   0  0  0  0  0  0  0  0  0  0  0  0
   23.7767    7.3155   -5.6041 H   0  0  0  0  0  0  0  0  0  0  0  0
   25.7710   11.1244   -5.2644 H   0  0  0  0  0  0  0  0  0  0  0  0
   28.4450   14.0761  -11.8901 H   0  0  0  0  0  0  0  0  0  0  0  0
   29.1264   13.2499  -13.3322 H   0  0  0  0  0  0  0  0  0  0  0  0
   27.4131   13.7896  -13.3322 H   0  0  0  0  0  0  0  0  0  0  0  0
   24.6588    8.1871   -3.4156 H   0  0  0  0  0  0  0  0  0  0  0  0
   25.2421    9.8796   -3.3103 H   0  0  0  0  0  0  0  0  0  0  0  0
   22.9267    9.7357   -2.4234 H   0  0  0  0  0  0  0  0  0  0  0  0
   22.9302   10.6804   -3.9512 H   0  0  0  0  0  0  0  0  0  0  0  0
   22.3664    8.9749   -3.9512 H   0  0  0  0  0  0  0  0  0  0  0  0
  1 11  1  0
  1  2  2  0
  1  6  1  0
  2  8  1  0
  2  3  1  0
  3  4  1  0
  4  5  1  0
  4  7  2  0
  5  6  2  0
  5 12  1  0
  8  9  2  0
  9 10  1  0
 10 11  2  0
 11 19  1  0
 12 13  1  0
 13 14  2  0
 13 18  1  0
 14 15  1  0
 15 16  2  0
 16 17  1  0
 16 21  1  0
 17 18  2  0
 21 22  1  0
 19 20  1  0
  3 23  1  0
  6 24  1  0
  9 25  1  0
 10 26  1  0
 12 27  1  0
 14 28  1  0
 15 29  1  0
 17 30  1  0
 20 31  1  1
 20 32  1  0
 20 33  1  0
 21 34  1  1
 21 35  1  0
 22 36  1  1
 22 37  1  0
 22 38  1  0
M  END
>  <Pose ID>  (217)
178

>  <Score>  (217)
-6.302312850952148

>  <smiles>  (217)
CCc1ccc(Nc2cc3c(OC)ccnc3[nH]c2=O)nc1

$$$$

     RDKit          3D

 37 40  0  0  0  0  0  0  0  0999 V2000
   27.9030    7.7870  -10.3690 C   0  0  0  0  0  0  0  0  0  0  0  0
   28.8940    7.0950  -11.0530 C   0  0  0  0  0  0  0  0  0  0  0  0
   29.7610    7.7780  -11.8980 N   0  0  0  0  0  0  0  0  0  0  0  0
   29.6380    9.1530  -12.0590 C   0  0  0  0  0  0  0  0  0  0  0  0
   27.0830    6.9300   -9.5180 O   0  0  0  0  0  0  0  0  0  0  0  0
   28.6440    9.8470  -11.3750 C   0  0  0  0  0  0  0  0  0  0  0  0
   27.7800    9.1620  -10.5290 C   0  0  0  0  0  0  0  0  0  0  0  0
   30.3440   10.0220  -12.8090 N   0  0  0  0  0  0  0  0  0  0  0  0
   29.8260   11.2850  -12.6300 C   0  0  0  0  0  0  0  0  0  0  0  0
   28.7800   11.0060  -11.7230 C   0  0  0  0  0  0  0  0  0  0  0  0
   26.2260    7.4050   -8.5180 C   0  0  0  0  0  0  0  0  0  0  0  0
   25.4100    8.4750   -8.8410 N   0  0  0  0  0  0  0  0  0  0  0  0
   24.7050    8.7830   -7.7460 N   0  0  0  0  0  0  0  0  0  0  0  0
   25.0020    7.9310   -6.6910 C   0  0  0  0  0  0  0  0  0  0  0  0
   25.9240    7.1080   -7.2020 C   0  0  0  0  0  0  0  0  0  0  0  0
   23.7560    9.7870   -7.5820 C   0  0  0  0  0  0  0  0  0  0  0  0
   23.1090    9.9380   -6.3630 N   0  0  0  0  0  0  0  0  0  0  0  0
   23.4070    9.0860   -5.3060 C   0  0  0  0  0  0  0  0  0  0  0  0
   24.3550    8.0820   -5.4700 C   0  0  0  0  0  0  0  0  0  0  0  0
   30.2540   12.5990  -13.2350 C   0  0  1  0  0  0  0  0  0  0  0  0
   24.6810    7.1580   -4.3230 C   0  0  1  0  0  0  0  0  0  0  0  0
   22.7020    9.2500   -3.9810 C   0  0  1  0  0  0  0  0  0  0  0  0
   28.9928    6.0068  -10.9261 H   0  0  0  0  0  0  0  0  0  0  0  0
   30.4956    7.2644  -12.4055 H   0  0  0  0  0  0  0  0  0  0  0  0
   26.9966    9.7097   -9.9845 H   0  0  0  0  0  0  0  0  0  0  0  0
   28.1178   11.8001  -11.3477 H   0  0  0  0  0  0  0  0  0  0  0  0
   26.3900    6.2865   -6.6382 H   0  0  0  0  0  0  0  0  0  0  0  0
   23.5183   10.4611   -8.4181 H   0  0  0  0  0  0  0  0  0  0  0  0
   30.4868   13.3138  -12.4320 H   0  0  0  0  0  0  0  0  0  0  0  0
   31.1476   12.4425  -13.8571 H   0  0  0  0  0  0  0  0  0  0  0  0
   29.4396   12.9988  -13.8571 H   0  0  0  0  0  0  0  0  0  0  0  0
   24.4979    7.6770   -3.3706 H   0  0  0  0  0  0  0  0  0  0  0  0
   24.0444    6.2628   -4.3810 H   0  0  0  0  0  0  0  0  0  0  0  0
   25.7384    6.8604   -4.3810 H   0  0  0  0  0  0  0  0  0  0  0  0
   23.4173    9.0836   -3.1620 H   0  0  0  0  0  0  0  0  0  0  0  0
   22.2910   10.2677   -3.9078 H   0  0  0  0  0  0  0  0  0  0  0  0
   21.8841    8.5181   -3.9078 H   0  0  0  0  0  0  0  0  0  0  0  0
  5  1  1  0
  5 11  1  0
  1  2  2  0
  1  7  1  0
  2  3  1  0
  3  4  1  0
  4  8  2  0
  4  6  1  0
  6 10  1  0
  6  7  2  0
  8  9  1  0
  9 20  1  0
  9 10  2  0
 11 12  2  0
 11 15  1  0
 12 13  1  0
 13 16  1  0
 13 14  1  0
 14 15  2  0
 14 19  1  0
 16 17  2  0
 17 18  1  0
 18 19  2  0
 18 22  1  0
 19 21  1  0
  2 23  1  0
  3 24  1  0
  7 25  1  0
 10 26  1  0
 15 27  1  0
 16 28  1  0
 20 29  1  1
 20 30  1  0
 20 31  1  0
 21 32  1  1
 21 33  1  0
 21 34  1  0
 22 35  1  1
 22 36  1  0
 22 37  1  0
M  END
>  <Pose ID>  (218)
281

>  <Score>  (218)
-6.2951130867004395

>  <smiles>  (218)
Cc1cc2cc(Oc3cc4c(C)c(C)ncn4n3)c[nH]c-2n1

$$$$

     RDKit          3D

 36 39  0  0  0  0  0  0  0  0999 V2000
   27.3100    7.8950  -10.1820 C   0  0  0  0  0  0  0  0  0  0  0  0
   28.4180    7.1470  -10.5460 C   0  0  0  0  0  0  0  0  0  0  0  0
   29.4010    7.7050  -11.3520 N   0  0  0  0  0  0  0  0  0  0  0  0
   26.5100    7.1530   -9.4000 N   0  0  0  0  0  0  0  0  0  0  0  0
   29.2760    9.0180  -11.7930 C   0  0  0  0  0  0  0  0  0  0  0  0
   28.1650    9.7690  -11.4270 C   0  0  0  0  0  0  0  0  0  0  0  0
   27.1820    9.2110  -10.6220 C   0  0  0  0  0  0  0  0  0  0  0  0
   30.0810    9.7680  -12.5640 N   0  0  0  0  0  0  0  0  0  0  0  0
   29.5550   10.9520  -12.7150 C   0  0  0  0  0  0  0  0  0  0  0  0
   28.3600   10.8920  -12.0100 C   0  0  0  0  0  0  0  0  0  0  0  0
   25.9290    7.6380   -8.1900 C   0  0  0  0  0  0  0  0  0  0  0  0
   25.2880    6.7320   -7.3530 N   0  0  0  0  0  0  0  0  0  0  0  0
   24.6070    7.1830   -6.2300 C   0  0  0  0  0  0  0  0  0  0  0  0
   24.5660    8.5440   -5.9430 C   0  0  0  0  0  0  0  0  0  0  0  0
   25.2040    9.4520   -6.7820 C   0  0  0  0  0  0  0  0  0  0  0  0
   25.9100    8.9940   -7.8900 C   0  0  0  0  0  0  0  0  0  0  0  0
   24.0380    6.3700   -5.4800 O   0  0  0  0  0  0  0  0  0  0  0  0
   29.9120   12.1180  -13.3830 C   0  0  0  0  0  0  0  0  0  0  0  0
   29.0720   13.2250  -13.3440 C   0  0  0  0  0  0  0  0  0  0  0  0
   27.8760   13.1660  -12.6390 C   0  0  0  0  0  0  0  0  0  0  0  0
   27.5190   12.0000  -11.9720 N   0  0  0  0  0  0  0  0  0  0  0  0
   23.9700    9.2290   -4.9070 O   0  0  0  0  0  0  0  0  0  0  0  0
   23.3900    8.6550   -3.6980 C   0  0  1  0  0  0  0  0  0  0  0  0
   28.5190    6.1092  -10.1957 H   0  0  0  0  0  0  0  0  0  0  0  0
   30.2228    7.1466  -11.6234 H   0  0  0  0  0  0  0  0  0  0  0  0
   26.3053    6.1854   -9.6876 H   0  0  0  0  0  0  0  0  0  0  0  0
   26.3036    9.8062  -10.3318 H   0  0  0  0  0  0  0  0  0  0  0  0
   25.3182    5.7247   -7.5661 H   0  0  0  0  0  0  0  0  0  0  0  0
   25.1504   10.5300   -6.5698 H   0  0  0  0  0  0  0  0  0  0  0  0
   26.4533    9.7061   -8.5286 H   0  0  0  0  0  0  0  0  0  0  0  0
   30.8583   12.1645  -13.9419 H   0  0  0  0  0  0  0  0  0  0  0  0
   29.3542   14.1481  -13.8715 H   0  0  0  0  0  0  0  0  0  0  0  0
   27.2117   14.0422  -12.6088 H   0  0  0  0  0  0  0  0  0  0  0  0
   23.8552    9.1154   -2.8139 H   0  0  0  0  0  0  0  0  0  0  0  0
   22.3069    8.8468   -3.6842 H   0  0  0  0  0  0  0  0  0  0  0  0
   23.5705    7.5700   -3.6842 H   0  0  0  0  0  0  0  0  0  0  0  0
  1  7  1  0
  1  2  2  0
  1  4  1  0
  2  3  1  0
  3  5  1  0
  5  8  2  0
  5  6  1  0
  6 10  1  0
  6  7  2  0
  8  9  1  0
  9 18  1  0
  9 10  2  0
 10 21  1  0
 18 19  2  0
 19 20  1  0
 20 21  2  0
  4 11  1  0
 11 16  2  0
 11 12  1  0
 12 13  1  0
 13 14  1  0
 13 17  2  0
 14 15  2  0
 14 22  1  0
 15 16  1  0
 22 23  1  0
  2 24  1  0
  3 25  1  0
  4 26  1  0
  7 27  1  0
 12 28  1  0
 15 29  1  0
 16 30  1  0
 18 31  1  0
 19 32  1  0
 20 33  1  0
 23 34  1  1
 23 35  1  0
 23 36  1  0
M  END
>  <Pose ID>  (219)
103

>  <Score>  (219)
-6.287463188171387

>  <smiles>  (219)
COc1ccc(Nc2c[nH]c3nc4cccnc4c-3c2)[nH]c1=O

$$$$

     RDKit          3D

 40 42  0  0  0  0  0  0  0  0999 V2000
   28.3710   10.1040  -11.6300 C   0  0  0  0  0  0  0  0  0  0  0  0
   29.1920    8.9800  -11.6380 C   0  0  0  0  0  0  0  0  0  0  0  0
   28.8610    7.8190  -10.9540 N   0  0  0  0  0  0  0  0  0  0  0  0
   27.6490    7.7550  -10.2750 C   0  0  0  0  0  0  0  0  0  0  0  0
   26.7900    8.8470  -10.2830 C   0  0  0  0  0  0  0  0  0  0  0  0
   27.1340    9.9880  -10.9830 C   0  0  0  0  0  0  0  0  0  0  0  0
   27.3340    6.7220   -9.6670 O   0  0  0  0  0  0  0  0  0  0  0  0
   30.4080    9.0160  -12.3080 N   0  0  0  0  0  0  0  0  0  0  0  0
   30.8020   10.1690  -12.9740 C   0  0  0  0  0  0  0  0  0  0  0  0
   29.9800   11.2900  -12.9680 C   0  0  0  0  0  0  0  0  0  0  0  0
   28.7610   11.2530  -12.2840 C   0  0  0  0  0  0  0  0  0  0  0  0
   25.5670    9.0350   -9.6880 N   0  0  0  0  0  0  0  0  0  0  0  0
   25.3910    8.9500   -8.2060 C   0  0  0  0  0  0  0  0  0  0  0  0
   24.8000    7.8020   -7.6910 C   0  0  0  0  0  0  0  0  0  0  0  0
   24.6070    7.6760   -6.3210 C   0  0  0  0  0  0  0  0  0  0  0  0
   25.0070    8.6970   -5.4650 C   0  0  0  0  0  0  0  0  0  0  0  0
   25.5980    9.8440   -5.9810 C   0  0  0  0  0  0  0  0  0  0  0  0
   25.7920    9.9700   -7.3520 N   0  0  0  0  0  0  0  0  0  0  0  0
   28.1410   12.4670  -12.4080 N   0  0  0  0  0  0  0  0  0  0  0  0
   27.7940   12.9800  -13.7400 C   0  0  1  0  0  0  0  0  0  0  0  0
   28.2400   13.5360  -11.4620 C   0  0  1  0  0  0  0  0  0  0  0  0
   25.8990   10.7010   -4.9460 O   0  0  0  0  0  0  0  0  0  0  0  0
   24.9150   11.0590   -4.0660 C   0  0  1  0  0  0  0  0  0  0  0  0
   29.5047    7.0149  -10.9492 H   0  0  0  0  0  0  0  0  0  0  0  0
   26.4205   10.8237  -11.0332 H   0  0  0  0  0  0  0  0  0  0  0  0
   31.7643   10.1953  -13.5062 H   0  0  0  0  0  0  0  0  0  0  0  0
   30.2874   12.2028  -13.4994 H   0  0  0  0  0  0  0  0  0  0  0  0
   24.7486    9.2402  -10.2788 H   0  0  0  0  0  0  0  0  0  0  0  0
   24.4854    6.9939   -8.3678 H   0  0  0  0  0  0  0  0  0  0  0  0
   24.1377    6.7686   -5.9130 H   0  0  0  0  0  0  0  0  0  0  0  0
   24.8555    8.5965   -4.3801 H   0  0  0  0  0  0  0  0  0  0  0  0
   27.1805   13.8870  -13.6352 H   0  0  0  0  0  0  0  0  0  0  0  0
   28.7148   13.2218  -14.2911 H   0  0  0  0  0  0  0  0  0  0  0  0
   27.2269   12.2154  -14.2911 H   0  0  0  0  0  0  0  0  0  0  0  0
   28.2021   13.1272  -10.4415 H   0  0  0  0  0  0  0  0  0  0  0  0
   29.1913   14.0685  -11.6086 H   0  0  0  0  0  0  0  0  0  0  0  0
   27.4027   14.2341  -11.6086 H   0  0  0  0  0  0  0  0  0  0  0  0
   25.2783   10.9268   -3.0362 H   0  0  0  0  0  0  0  0  0  0  0  0
   24.6448   12.1131   -4.2271 H   0  0  0  0  0  0  0  0  0  0  0  0
   24.0306   10.4250   -4.2271 H   0  0  0  0  0  0  0  0  0  0  0  0
  1 11  1  0
  1  2  2  0
  1  6  1  0
  2  8  1  0
  2  3  1  0
  3  4  1  0
  4  5  1  0
  4  7  2  0
  5  6  2  0
  5 12  1  0
  8  9  2  0
  9 10  1  0
 10 11  2  0
 11 19  1  0
 19 20  1  0
 19 21  1  0
 12 13  1  0
 13 14  2  0
 13 18  1  0
 14 15  1  0
 15 16  2  0
 16 17  1  0
 17 18  2  0
 17 22  1  0
 22 23  1  0
  3 24  1  0
  6 25  1  0
  9 26  1  0
 10 27  1  0
 12 28  1  0
 14 29  1  0
 15 30  1  0
 16 31  1  0
 20 32  1  1
 20 33  1  0
 20 34  1  0
 21 35  1  1
 21 36  1  0
 21 37  1  0
 23 38  1  1
 23 39  1  0
 23 40  1  0
M  END
>  <Pose ID>  (220)
166

>  <Score>  (220)
-6.286675930023193

>  <smiles>  (220)
COc1cccc(Nc2cc3c(N(C)C)ccnc3[nH]c2=O)n1

$$$$

     RDKit          3D

 38 41  0  0  0  0  0  0  0  0999 V2000
   27.3240    7.9130  -10.1920 C   0  0  0  0  0  0  0  0  0  0  0  0
   28.4270    7.1540  -10.5490 C   0  0  0  0  0  0  0  0  0  0  0  0
   29.4200    7.7050  -11.3480 N   0  0  0  0  0  0  0  0  0  0  0  0
   26.5120    7.1780   -9.4160 N   0  0  0  0  0  0  0  0  0  0  0  0
   29.3110    9.0190  -11.7890 C   0  0  0  0  0  0  0  0  0  0  0  0
   28.2050    9.7790  -11.4300 C   0  0  0  0  0  0  0  0  0  0  0  0
   27.2110    9.2310  -10.6320 C   0  0  0  0  0  0  0  0  0  0  0  0
   30.1280    9.7610  -12.5540 N   0  0  0  0  0  0  0  0  0  0  0  0
   29.6130   10.9510  -12.7080 C   0  0  0  0  0  0  0  0  0  0  0  0
   28.4130   10.9010  -12.0120 C   0  0  0  0  0  0  0  0  0  0  0  0
   25.9260    7.6690   -8.2100 C   0  0  0  0  0  0  0  0  0  0  0  0
   25.2720    6.7670   -7.3770 N   0  0  0  0  0  0  0  0  0  0  0  0
   24.5880    7.2250   -6.2590 C   0  0  0  0  0  0  0  0  0  0  0  0
   24.5580    8.5850   -5.9710 C   0  0  0  0  0  0  0  0  0  0  0  0
   25.2080    9.4880   -6.8050 C   0  0  0  0  0  0  0  0  0  0  0  0
   25.9180    9.0240   -7.9090 C   0  0  0  0  0  0  0  0  0  0  0  0
   24.0050    6.4160   -5.5130 O   0  0  0  0  0  0  0  0  0  0  0  0
   29.9860   12.1130  -13.3730 C   0  0  0  0  0  0  0  0  0  0  0  0
   29.1560   13.2270  -13.3390 C   0  0  0  0  0  0  0  0  0  0  0  0
   27.9550   13.1790  -12.6430 C   0  0  0  0  0  0  0  0  0  0  0  0
   27.5840   12.0170  -11.9780 N   0  0  0  0  0  0  0  0  0  0  0  0
   25.1460   10.9670   -6.5130 C   0  0  1  0  0  0  0  0  0  0  0  0
   27.0540   14.3890  -12.6080 C   0  0  1  0  0  0  0  0  0  0  0  0
   28.5160    6.1148  -10.1994 H   0  0  0  0  0  0  0  0  0  0  0  0
   30.2386    7.1394  -11.6144 H   0  0  0  0  0  0  0  0  0  0  0  0
   26.3012    6.2120   -9.7048 H   0  0  0  0  0  0  0  0  0  0  0  0
   26.3365    9.8346  -10.3474 H   0  0  0  0  0  0  0  0  0  0  0  0
   25.2952    5.7595   -7.5896 H   0  0  0  0  0  0  0  0  0  0  0  0
   24.0196    8.9468   -5.0826 H   0  0  0  0  0  0  0  0  0  0  0  0
   26.4728    9.7314   -8.5429 H   0  0  0  0  0  0  0  0  0  0  0  0
   30.9366   12.1508  -13.9253 H   0  0  0  0  0  0  0  0  0  0  0  0
   29.4505   14.1478  -13.8638 H   0  0  0  0  0  0  0  0  0  0  0  0
   25.1393   11.1259   -5.4246 H   0  0  0  0  0  0  0  0  0  0  0  0
   26.0241   11.4643   -6.9508 H   0  0  0  0  0  0  0  0  0  0  0  0
   24.2294   11.3891   -6.9508 H   0  0  0  0  0  0  0  0  0  0  0  0
   26.8494   14.6637  -11.5627 H   0  0  0  0  0  0  0  0  0  0  0  0
   27.5483   15.2291  -13.1179 H   0  0  0  0  0  0  0  0  0  0  0  0
   26.1075   14.1563  -13.1179 H   0  0  0  0  0  0  0  0  0  0  0  0
  1  7  1  0
  1  2  2  0
  1  4  1  0
  2  3  1  0
  3  5  1  0
  5  8  2  0
  5  6  1  0
  6 10  1  0
  6  7  2  0
  8  9  1  0
  9 18  1  0
  9 10  2  0
 10 21  1  0
 18 19  2  0
 19 20  1  0
 20 23  1  0
 20 21  2  0
  4 11  1  0
 11 16  2  0
 11 12  1  0
 12 13  1  0
 13 14  1  0
 13 17  2  0
 14 15  2  0
 15 16  1  0
 15 22  1  0
  2 24  1  0
  3 25  1  0
  4 26  1  0
  7 27  1  0
 12 28  1  0
 14 29  1  0
 16 30  1  0
 18 31  1  0
 19 32  1  0
 22 33  1  1
 22 34  1  0
 22 35  1  0
 23 36  1  1
 23 37  1  0
 23 38  1  0
M  END
>  <Pose ID>  (221)
102

>  <Score>  (221)
-6.276609897613525

>  <smiles>  (221)
Cc1cc(Nc2c[nH]c3nc4ccc(C)nc4c-3c2)[nH]c(=O)c1

$$$$

     RDKit          3D

 40 42  0  0  0  0  0  0  0  0999 V2000
   28.8290    9.4670  -11.9720 C   0  0  0  0  0  0  0  0  0  0  0  0
   29.4770    8.2720  -11.7200 C   0  0  0  0  0  0  0  0  0  0  0  0
   28.9400    7.3740  -10.8060 N   0  0  0  0  0  0  0  0  0  0  0  0
   27.7680    7.6850  -10.1300 C   0  0  0  0  0  0  0  0  0  0  0  0
   27.6640    9.7950  -11.2810 C   0  0  0  0  0  0  0  0  0  0  0  0
   27.1290    8.8940  -10.3670 C   0  0  0  0  0  0  0  0  0  0  0  0
   27.0690    6.9880   -9.2120 N   0  0  0  0  0  0  0  0  0  0  0  0
   25.9710    7.7300   -8.8370 C   0  0  0  0  0  0  0  0  0  0  0  0
   26.1560    8.8830   -9.6330 C   0  0  0  0  0  0  0  0  0  0  0  0
   24.9070    7.5960   -7.9780 N   0  0  0  0  0  0  0  0  0  0  0  0
   24.7280    8.3540   -6.8130 C   0  0  0  0  0  0  0  0  0  0  0  0
   24.0610    9.5710   -6.8930 C   0  0  0  0  0  0  0  0  0  0  0  0
   23.8730   10.3370   -5.7480 C   0  0  0  0  0  0  0  0  0  0  0  0
   24.3550    9.8880   -4.5250 C   0  0  0  0  0  0  0  0  0  0  0  0
   25.0240    8.6710   -4.4460 N   0  0  0  0  0  0  0  0  0  0  0  0
   25.2090    7.9060   -5.5920 C   0  0  0  0  0  0  0  0  0  0  0  0
   23.1930   11.4820   -6.0800 N   0  0  0  0  0  0  0  0  0  0  0  0
   23.7750   12.7940   -5.8830 C   0  0  0  0  0  0  0  0  0  0  0  0
   24.9180   12.9280   -5.5690 O   0  0  0  0  0  0  0  0  0  0  0  0
   22.8580   13.8800   -6.3120 C   0  0  1  0  0  0  0  0  0  0  0  0
   22.0280   14.5420   -5.1570 C   0  0  1  0  0  0  0  0  0  0  0  0
   25.1590    9.8070   -9.4140 O   0  0  0  0  0  0  0  0  0  0  0  0
   25.7390   10.9670   -8.7700 C   0  0  1  0  0  0  0  0  0  0  0  0
   29.2349   10.1623  -12.7215 H   0  0  0  0  0  0  0  0  0  0  0  0
   30.4153    8.0328  -12.2418 H   0  0  0  0  0  0  0  0  0  0  0  0
   29.4123    6.4758  -10.6296 H   0  0  0  0  0  0  0  0  0  0  0  0
   27.1702   10.7619  -11.4578 H   0  0  0  0  0  0  0  0  0  0  0  0
   24.1922    6.8903   -8.2059 H   0  0  0  0  0  0  0  0  0  0  0  0
   23.6820    9.9279   -7.8620 H   0  0  0  0  0  0  0  0  0  0  0  0
   24.2077   10.4947   -3.6193 H   0  0  0  0  0  0  0  0  0  0  0  0
   25.7379    6.9435   -5.5301 H   0  0  0  0  0  0  0  0  0  0  0  0
   22.2463   11.4067   -6.4787 H   0  0  0  0  0  0  0  0  0  0  0  0
   23.4602   14.6651   -6.7927 H   0  0  0  0  0  0  0  0  0  0  0  0
   22.1262   13.4149   -6.9888 H   0  0  0  0  0  0  0  0  0  0  0  0
   22.4309   14.2206   -4.1852 H   0  0  0  0  0  0  0  0  0  0  0  0
   22.0956   15.6369   -5.2380 H   0  0  0  0  0  0  0  0  0  0  0  0
   20.9755   14.2326   -5.2380 H   0  0  0  0  0  0  0  0  0  0  0  0
   25.6796   10.8482   -7.6781 H   0  0  0  0  0  0  0  0  0  0  0  0
   26.7923   11.0653   -9.0714 H   0  0  0  0  0  0  0  0  0  0  0  0
   25.1857   11.8687   -9.0714 H   0  0  0  0  0  0  0  0  0  0  0  0
 10  8  1  0
 10 11  1  0
  1  2  2  0
  1  5  1  0
  2  3  1  0
  3  4  1  0
  4  6  1  0
  4  7  2  0
  5  6  2  0
  6  9  1  0
  7  8  1  0
  8  9  2  0
  9 22  1  0
 22 23  1  0
 11 12  2  0
 11 16  1  0
 12 13  1  0
 13 17  1  0
 13 14  2  0
 14 15  1  0
 15 16  2  0
 17 18  1  0
 18 20  1  0
 18 19  2  0
 20 21  1  0
  1 24  1  0
  2 25  1  0
  3 26  1  0
  5 27  1  0
 10 28  1  0
 12 29  1  0
 14 30  1  0
 16 31  1  0
 17 32  1  0
 20 33  1  6
 20 34  1  0
 21 35  1  1
 21 36  1  0
 21 37  1  0
 23 38  1  1
 23 39  1  0
 23 40  1  0
M  END
>  <Pose ID>  (222)
227

>  <Score>  (222)
-6.276221752166748

>  <smiles>  (222)
CCC(=O)Nc1cncc(Nc2nc3[nH]cccc-3c2OC)c1

$$$$

     RDKit          3D

 38 41  0  0  0  0  0  0  0  0999 V2000
   27.1400    8.2110  -10.0810 C   0  0  0  0  0  0  0  0  0  0  0  0
   27.8570    7.2500  -10.7770 C   0  0  0  0  0  0  0  0  0  0  0  0
   28.8590    7.6350  -11.6620 N   0  0  0  0  0  0  0  0  0  0  0  0
   29.1410    8.9820  -11.8500 C   0  0  0  0  0  0  0  0  0  0  0  0
   26.1320    7.6460   -9.1870 O   0  0  0  0  0  0  0  0  0  0  0  0
   28.4200    9.9440  -11.1530 C   0  0  0  0  0  0  0  0  0  0  0  0
   27.4200    9.5590  -10.2670 C   0  0  0  0  0  0  0  0  0  0  0  0
   30.0460    9.5910  -12.6370 N   0  0  0  0  0  0  0  0  0  0  0  0
   29.9300   10.9540  -12.4730 C   0  0  0  0  0  0  0  0  0  0  0  0
   28.8790   11.0090  -11.5320 C   0  0  0  0  0  0  0  0  0  0  0  0
   25.4860    8.3660   -8.1740 C   0  0  0  0  0  0  0  0  0  0  0  0
   25.0120    9.6270   -8.5020 N   0  0  0  0  0  0  0  0  0  0  0  0
   24.4430   10.1740   -7.3660 N   0  0  0  0  0  0  0  0  0  0  0  0
   24.5470    9.2810   -6.3680 C   0  0  0  0  0  0  0  0  0  0  0  0
   25.1550    8.1910   -6.8420 C   0  0  0  0  0  0  0  0  0  0  0  0
   23.9240   11.3360   -7.3620 C   0  0  0  0  0  0  0  0  0  0  0  0
   24.0650   11.9230   -8.6150 C   0  0  0  0  0  0  0  0  0  0  0  0
   23.3130   12.0370   -6.3310 C   0  0  0  0  0  0  0  0  0  0  0  0
   22.8430   13.3280   -6.5500 C   0  0  0  0  0  0  0  0  0  0  0  0
   23.5950   13.2130   -8.8340 C   0  0  0  0  0  0  0  0  0  0  0  0
   22.9840   13.9150   -7.8020 N   0  0  0  0  0  0  0  0  0  0  0  0
   25.4410    6.9450   -6.0390 C   0  0  1  0  0  0  0  0  0  0  0  0
   24.3450    6.7280   -5.0120 C   0  0  1  0  0  0  0  0  0  0  0  0
   27.6336    6.1831  -10.6295 H   0  0  0  0  0  0  0  0  0  0  0  0
   29.3921    6.9207  -12.1782 H   0  0  0  0  0  0  0  0  0  0  0  0
   26.8512   10.3209   -9.7139 H   0  0  0  0  0  0  0  0  0  0  0  0
   30.4973   11.7706  -12.9434 H   0  0  0  0  0  0  0  0  0  0  0  0
   28.4917   11.9681  -11.1577 H   0  0  0  0  0  0  0  0  0  0  0  0
   24.1920    9.4234   -5.3367 H   0  0  0  0  0  0  0  0  0  0  0  0
   24.5480   11.3670   -9.4321 H   0  0  0  0  0  0  0  0  0  0  0  0
   23.2005   11.5715   -5.3407 H   0  0  0  0  0  0  0  0  0  0  0  0
   22.3601   13.8839   -5.7328 H   0  0  0  0  0  0  0  0  0  0  0  0
   23.7068   13.6781   -9.8245 H   0  0  0  0  0  0  0  0  0  0  0  0
   25.4844    6.0780   -6.7145 H   0  0  0  0  0  0  0  0  0  0  0  0
   26.4042    7.0619   -5.5208 H   0  0  0  0  0  0  0  0  0  0  0  0
   24.7687    6.8119   -4.0003 H   0  0  0  0  0  0  0  0  0  0  0  0
   23.5615    7.4885   -5.1456 H   0  0  0  0  0  0  0  0  0  0  0  0
   23.9104    5.7264   -5.1456 H   0  0  0  0  0  0  0  0  0  0  0  0
 11  5  1  0
 11 12  2  0
 11 15  1  0
 12 13  1  0
 13 16  1  0
 13 14  1  0
 14 15  2  0
 15 22  1  0
 16 17  2  0
 16 18  1  0
 17 20  1  0
 18 19  2  0
 19 21  1  0
 20 21  2  0
 22 23  1  0
  5  1  1  0
  1  2  2  0
  1  7  1  0
  2  3  1  0
  3  4  1  0
  4  8  2  0
  4  6  1  0
  6 10  1  0
  6  7  2  0
  8  9  1  0
  9 10  2  0
  2 24  1  0
  3 25  1  0
  7 26  1  0
  9 27  1  0
 10 28  1  0
 14 29  1  0
 17 30  1  0
 18 31  1  0
 19 32  1  0
 20 33  1  0
 22 34  1  6
 22 35  1  0
 23 36  1  1
 23 37  1  0
 23 38  1  0
M  END
>  <Pose ID>  (223)
433

>  <Score>  (223)
-6.272996425628662

>  <smiles>  (223)
CCc1cn(-c2ccncc2)nc1Oc1c[nH]c2nccc-2c1

$$$$

     RDKit          3D

 40 43  0  0  0  0  0  0  0  0999 V2000
   27.3280    7.9760  -10.1760 C   0  0  0  0  0  0  0  0  0  0  0  0
   28.4050    7.1890  -10.5540 C   0  0  0  0  0  0  0  0  0  0  0  0
   29.3900    7.7110  -11.3830 N   0  0  0  0  0  0  0  0  0  0  0  0
   26.5210    7.2630   -9.3740 N   0  0  0  0  0  0  0  0  0  0  0  0
   29.2970    9.0240  -11.8310 C   0  0  0  0  0  0  0  0  0  0  0  0
   28.2180    9.8120  -11.4510 C   0  0  0  0  0  0  0  0  0  0  0  0
   27.2340    9.2910  -10.6240 C   0  0  0  0  0  0  0  0  0  0  0  0
   30.1130    9.7400  -12.6240 N   0  0  0  0  0  0  0  0  0  0  0  0
   29.5810   11.0010  -12.7780 C   0  0  0  0  0  0  0  0  0  0  0  0
   28.4100   10.8820  -12.0020 C   0  0  0  0  0  0  0  0  0  0  0  0
   25.9750    7.7800   -8.1590 C   0  0  0  0  0  0  0  0  0  0  0  0
   25.3250    6.9000   -7.3020 N   0  0  0  0  0  0  0  0  0  0  0  0
   24.6780    7.3820   -6.1700 C   0  0  0  0  0  0  0  0  0  0  0  0
   24.6840    8.7440   -5.8940 C   0  0  0  0  0  0  0  0  0  0  0  0
   25.3340    9.6250   -6.7500 C   0  0  0  0  0  0  0  0  0  0  0  0
   26.0070    9.1360   -7.8690 C   0  0  0  0  0  0  0  0  0  0  0  0
   23.9650    6.7140   -5.1700 C   0  0  0  0  0  0  0  0  0  0  0  0
   23.6730    7.6710   -4.2230 N   0  0  0  0  0  0  0  0  0  0  0  0
   24.0900    8.8570   -4.5300 C   0  0  0  0  0  0  0  0  0  0  0  0
   24.0030    9.9920   -3.7550 O   0  0  0  0  0  0  0  0  0  0  0  0
   23.2640   10.0480   -2.5910 C   0  0  1  0  0  0  0  0  0  0  0  0
   23.4940    8.6170   -1.9540 C   0  0  1  0  0  0  0  0  0  0  0  0
   25.3120   11.1070   -6.4700 C   0  0  1  0  0  0  0  0  0  0  0  0
   28.4796    6.1511  -10.1974 H   0  0  0  0  0  0  0  0  0  0  0  0
   30.1889    7.1256  -11.6657 H   0  0  0  0  0  0  0  0  0  0  0  0
   26.2845    6.2985   -9.6473 H   0  0  0  0  0  0  0  0  0  0  0  0
   26.3804    9.9158  -10.3224 H   0  0  0  0  0  0  0  0  0  0  0  0
   29.9631   11.8610  -13.3475 H   0  0  0  0  0  0  0  0  0  0  0  0
   27.7016   11.7172  -11.8985 H   0  0  0  0  0  0  0  0  0  0  0  0
   25.3227    5.8903   -7.5057 H   0  0  0  0  0  0  0  0  0  0  0  0
   26.5630    9.8253   -8.5215 H   0  0  0  0  0  0  0  0  0  0  0  0
   23.6941    5.6482   -5.1447 H   0  0  0  0  0  0  0  0  0  0  0  0
   23.6346   10.8413   -1.9252 H   0  0  0  0  0  0  0  0  0  0  0  0
   22.2026   10.2808   -2.7621 H   0  0  0  0  0  0  0  0  0  0  0  0
   23.4810    8.6976   -0.8570 H   0  0  0  0  0  0  0  0  0  0  0  0
   22.6936    7.9371   -2.2812 H   0  0  0  0  0  0  0  0  0  0  0  0
   24.4671    8.2221   -2.2812 H   0  0  0  0  0  0  0  0  0  0  0  0
   25.3095   11.2748   -5.3829 H   0  0  0  0  0  0  0  0  0  0  0  0
   26.2033   11.5768   -6.9115 H   0  0  0  0  0  0  0  0  0  0  0  0
   24.4072   11.5502   -6.9115 H   0  0  0  0  0  0  0  0  0  0  0  0
 11  4  1  0
 11 16  2  0
 11 12  1  0
 12 13  1  0
 13 14  1  0
 13 17  2  0
 14 15  2  0
 14 19  1  0
 15 16  1  0
 15 23  1  0
 17 18  1  0
 18 19  2  0
 19 20  1  0
  4  1  1  0
  1  7  1  0
  1  2  2  0
  2  3  1  0
  3  5  1  0
  5  8  2  0
  5  6  1  0
  6 10  1  0
  6  7  2  0
  8  9  1  0
  9 10  2  0
 20 21  1  0
 21 22  1  0
  2 24  1  0
  3 25  1  0
  4 26  1  0
  7 27  1  0
  9 28  1  0
 10 29  1  0
 12 30  1  0
 16 31  1  0
 17 32  1  0
 21 33  1  1
 21 34  1  0
 22 35  1  1
 22 36  1  0
 22 37  1  0
 23 38  1  1
 23 39  1  0
 23 40  1  0
M  END
>  <Pose ID>  (224)
68

>  <Score>  (224)
-6.267972469329834

>  <smiles>  (224)
CCOc1ncc2[nH]c(Nc3c[nH]c4nccc-4c3)cc(C)c1-2

$$$$

     RDKit          3D

 36 39  0  0  0  0  0  0  0  0999 V2000
   28.0360    7.8930  -10.4870 C   0  0  0  0  0  0  0  0  0  0  0  0
   28.9090    7.1400  -11.2610 C   0  0  0  0  0  0  0  0  0  0  0  0
   29.7860    7.7720  -12.1340 N   0  0  0  0  0  0  0  0  0  0  0  0
   29.7930    9.1580  -12.2310 C   0  0  0  0  0  0  0  0  0  0  0  0
   27.1880    7.0840   -9.6180 O   0  0  0  0  0  0  0  0  0  0  0  0
   28.9180    9.9130  -11.4560 C   0  0  0  0  0  0  0  0  0  0  0  0
   28.0410    9.2800  -10.5850 C   0  0  0  0  0  0  0  0  0  0  0  0
   30.5370    9.9870  -12.9890 N   0  0  0  0  0  0  0  0  0  0  0  0
   30.1600   11.2860  -12.7280 C   0  0  0  0  0  0  0  0  0  0  0  0
   29.1470   11.0680  -11.7670 C   0  0  0  0  0  0  0  0  0  0  0  0
   26.4450    7.5920   -8.5470 C   0  0  0  0  0  0  0  0  0  0  0  0
   25.7230    8.7520   -8.7750 N   0  0  0  0  0  0  0  0  0  0  0  0
   25.0940    9.0990   -7.5940 N   0  0  0  0  0  0  0  0  0  0  0  0
   25.4000    8.1840   -6.6630 C   0  0  0  0  0  0  0  0  0  0  0  0
   26.1960    7.2670   -7.2240 C   0  0  0  0  0  0  0  0  0  0  0  0
   24.3010   10.1950   -7.4430 C   0  0  0  0  0  0  0  0  0  0  0  0
   24.2530   11.2070   -8.3950 C   0  0  0  0  0  0  0  0  0  0  0  0
   23.6960   10.3770   -6.2050 C   0  0  0  0  0  0  0  0  0  0  0  0
   23.0440   11.5710   -5.9180 C   0  0  0  0  0  0  0  0  0  0  0  0
   23.6010   12.4010   -8.1070 C   0  0  0  0  0  0  0  0  0  0  0  0
   22.9880   12.5730   -6.8730 N   0  0  0  0  0  0  0  0  0  0  0  0
   23.5680   13.3130   -8.9530 O   0  0  0  0  0  0  0  0  0  0  0  0
   28.3830   12.2150  -11.1530 C   0  0  1  0  0  0  0  0  0  0  0  0
   28.9063    6.0428  -11.1830 H   0  0  0  0  0  0  0  0  0  0  0  0
   30.4314    7.2126  -12.7097 H   0  0  0  0  0  0  0  0  0  0  0  0
   27.3495    9.8765   -9.9719 H   0  0  0  0  0  0  0  0  0  0  0  0
   30.5405   12.2282  -13.1492 H   0  0  0  0  0  0  0  0  0  0  0  0
   25.0559    8.1869   -5.6182 H   0  0  0  0  0  0  0  0  0  0  0  0
   26.5957    6.3814   -6.7083 H   0  0  0  0  0  0  0  0  0  0  0  0
   24.7305   11.0633   -9.3755 H   0  0  0  0  0  0  0  0  0  0  0  0
   23.7330    9.5760   -5.4519 H   0  0  0  0  0  0  0  0  0  0  0  0
   22.5737   11.7197   -4.9348 H   0  0  0  0  0  0  0  0  0  0  0  0
   22.4891   13.4501   -6.6666 H   0  0  0  0  0  0  0  0  0  0  0  0
   28.4313   12.1425  -10.0565 H   0  0  0  0  0  0  0  0  0  0  0  0
   28.8278   13.1673  -11.4774 H   0  0  0  0  0  0  0  0  0  0  0  0
   27.3328   12.1715  -11.4774 H   0  0  0  0  0  0  0  0  0  0  0  0
 11  5  1  0
 11 12  2  0
 11 15  1  0
 12 13  1  0
 13 16  1  0
 13 14  1  0
 14 15  2  0
 16 17  2  0
 16 18  1  0
 17 20  1  0
 18 19  2  0
 19 21  1  0
 20 22  2  0
 20 21  1  0
  5  1  1  0
  1  2  2  0
  1  7  1  0
  2  3  1  0
  3  4  1  0
  4  8  2  0
  4  6  1  0
  6 10  1  0
  6  7  2  0
  8  9  1  0
  9 10  2  0
 10 23  1  0
  2 24  1  0
  3 25  1  0
  7 26  1  0
  9 27  1  0
 14 28  1  0
 15 29  1  0
 17 30  1  0
 18 31  1  0
 19 32  1  0
 21 33  1  0
 23 34  1  1
 23 35  1  0
 23 36  1  0
M  END
>  <Pose ID>  (225)
413

>  <Score>  (225)
-6.262406349182129

>  <smiles>  (225)
Cc1cnc2[nH]cc(Oc3ccn(-c4cc[nH]c(=O)c4)n3)cc1-2

$$$$

     RDKit          3D

 35 37  0  0  0  0  0  0  0  0999 V2000
   28.2080    9.9190  -11.5050 C   0  0  0  0  0  0  0  0  0  0  0  0
   28.9730    8.7630  -11.3970 C   0  0  0  0  0  0  0  0  0  0  0  0
   28.5750    7.6830  -10.6230 N   0  0  0  0  0  0  0  0  0  0  0  0
   27.3490    7.7350   -9.9670 C   0  0  0  0  0  0  0  0  0  0  0  0
   26.5440    8.8610  -10.0900 C   0  0  0  0  0  0  0  0  0  0  0  0
   26.9550    9.9180  -10.8770 C   0  0  0  0  0  0  0  0  0  0  0  0
   26.9750    6.7750   -9.2770 O   0  0  0  0  0  0  0  0  0  0  0  0
   30.2030    8.6830  -12.0410 N   0  0  0  0  0  0  0  0  0  0  0  0
   30.6620    9.7530  -12.7970 C   0  0  0  0  0  0  0  0  0  0  0  0
   29.8940   10.9070  -12.9060 C   0  0  0  0  0  0  0  0  0  0  0  0
   28.6620   10.9870  -12.2480 C   0  0  0  0  0  0  0  0  0  0  0  0
   25.3220    9.1570   -9.5390 N   0  0  0  0  0  0  0  0  0  0  0  0
   25.1150    9.2100   -8.0610 C   0  0  0  0  0  0  0  0  0  0  0  0
   24.4600    8.1420   -7.4600 C   0  0  0  0  0  0  0  0  0  0  0  0
   24.2370    8.1460   -6.0880 C   0  0  0  0  0  0  0  0  0  0  0  0
   24.6700    9.2190   -5.3180 C   0  0  0  0  0  0  0  0  0  0  0  0
   25.3230   10.2880   -5.9180 C   0  0  0  0  0  0  0  0  0  0  0  0
   25.5470   10.2830   -7.2890 N   0  0  0  0  0  0  0  0  0  0  0  0
   27.7360   12.0040  -12.1890 O   0  0  0  0  0  0  0  0  0  0  0  0
   27.7180   13.2170  -13.0000 C   0  0  1  0  0  0  0  0  0  0  0  0
   24.4320    9.2220   -3.8280 C   0  0  1  0  0  0  0  0  0  0  0  0
   29.1791    6.8534  -10.5350 H   0  0  0  0  0  0  0  0  0  0  0  0
   26.2841   10.7788  -11.0143 H   0  0  0  0  0  0  0  0  0  0  0  0
   31.6330    9.6879  -13.3097 H   0  0  0  0  0  0  0  0  0  0  0  0
   30.2541   11.7545  -13.5078 H   0  0  0  0  0  0  0  0  0  0  0  0
   24.5250    9.3480  -10.1629 H   0  0  0  0  0  0  0  0  0  0  0  0
   24.1179    7.2931   -8.0702 H   0  0  0  0  0  0  0  0  0  0  0  0
   23.7183    7.3007   -5.6121 H   0  0  0  0  0  0  0  0  0  0  0  0
   25.6626   11.1380   -5.3080 H   0  0  0  0  0  0  0  0  0  0  0  0
   27.7049   14.0981  -12.3416 H   0  0  0  0  0  0  0  0  0  0  0  0
   28.6158   13.2470  -13.6349 H   0  0  0  0  0  0  0  0  0  0  0  0
   26.8197   13.2203  -13.6349 H   0  0  0  0  0  0  0  0  0  0  0  0
   25.3982    9.2098   -3.3023 H   0  0  0  0  0  0  0  0  0  0  0  0
   23.8735   10.1273   -3.5477 H   0  0  0  0  0  0  0  0  0  0  0  0
   23.8508    8.3311   -3.5477 H   0  0  0  0  0  0  0  0  0  0  0  0
  1 11  1  0
  1  2  2  0
  1  6  1  0
  2  8  1  0
  2  3  1  0
  3  4  1  0
  4  5  1  0
  4  7  2  0
  5  6  2  0
  5 12  1  0
  8  9  2  0
  9 10  1  0
 10 11  2  0
 11 19  1  0
 12 13  1  0
 13 14  2  0
 13 18  1  0
 14 15  1  0
 15 16  2  0
 16 17  1  0
 16 21  1  0
 17 18  2  0
 19 20  1  0
  3 22  1  0
  6 23  1  0
  9 24  1  0
 10 25  1  0
 12 26  1  0
 14 27  1  0
 15 28  1  0
 17 29  1  0
 20 30  1  1
 20 31  1  0
 20 32  1  0
 21 33  1  1
 21 34  1  0
 21 35  1  0
M  END
>  <Pose ID>  (226)
172

>  <Score>  (226)
-6.2582316398620605

>  <smiles>  (226)
COc1ccnc2[nH]c(=O)c(Nc3ccc(C)cn3)cc12

$$$$

     RDKit          3D

 40 43  0  0  0  0  0  0  0  0999 V2000
   27.3680    7.9350  -10.1550 C   0  0  0  0  0  0  0  0  0  0  0  0
   28.4870    7.1750  -10.4600 C   0  0  0  0  0  0  0  0  0  0  0  0
   29.4740    7.6950  -11.2910 N   0  0  0  0  0  0  0  0  0  0  0  0
   26.5690    7.2330   -9.3370 N   0  0  0  0  0  0  0  0  0  0  0  0
   29.3390    8.9750  -11.8130 C   0  0  0  0  0  0  0  0  0  0  0  0
   28.2180    9.7350  -11.5060 C   0  0  0  0  0  0  0  0  0  0  0  0
   27.2320    9.2180  -10.6790 C   0  0  0  0  0  0  0  0  0  0  0  0
   30.1450    9.6830  -12.6250 N   0  0  0  0  0  0  0  0  0  0  0  0
   29.5680   10.9080  -12.8600 C   0  0  0  0  0  0  0  0  0  0  0  0
   28.3800   10.7810  -12.1110 C   0  0  0  0  0  0  0  0  0  0  0  0
   25.9670    7.7900   -8.1670 C   0  0  0  0  0  0  0  0  0  0  0  0
   25.3300    6.9310   -7.2800 N   0  0  0  0  0  0  0  0  0  0  0  0
   24.6320    7.4440   -6.1930 C   0  0  0  0  0  0  0  0  0  0  0  0
   24.5720    8.8180   -5.9940 C   0  0  0  0  0  0  0  0  0  0  0  0
   25.2100    9.6790   -6.8810 C   0  0  0  0  0  0  0  0  0  0  0  0
   25.9330    9.1600   -7.9510 C   0  0  0  0  0  0  0  0  0  0  0  0
   23.9200    6.8020   -5.1770 C   0  0  0  0  0  0  0  0  0  0  0  0
   23.5600    7.7960   -4.2930 N   0  0  0  0  0  0  0  0  0  0  0  0
   23.9350    8.9800   -4.6540 C   0  0  0  0  0  0  0  0  0  0  0  0
   23.8710   10.2380   -4.1010 O   0  0  0  0  0  0  0  0  0  0  0  0
   22.5240   10.6670   -4.1240 C   0  0  1  0  0  0  0  0  0  0  0  0
   21.5960    9.5080   -3.7490 C   0  0  1  0  0  0  0  0  0  0  0  0
   20.1480    9.7860   -3.4320 C   0  0  1  0  0  0  0  0  0  0  0  0
   28.5941    6.1618  -10.0452 H   0  0  0  0  0  0  0  0  0  0  0  0
   30.3049    7.1308  -11.5192 H   0  0  0  0  0  0  0  0  0  0  0  0
   26.3807    6.2459   -9.5632 H   0  0  0  0  0  0  0  0  0  0  0  0
   26.3439    9.8205  -10.4374 H   0  0  0  0  0  0  0  0  0  0  0  0
   29.9316   11.7523  -13.4641 H   0  0  0  0  0  0  0  0  0  0  0  0
   27.6339   11.5884  -12.0743 H   0  0  0  0  0  0  0  0  0  0  0  0
   25.3751    5.9127   -7.4281 H   0  0  0  0  0  0  0  0  0  0  0  0
   25.1432   10.7675   -6.7370 H   0  0  0  0  0  0  0  0  0  0  0  0
   26.4778    9.8365   -8.6259 H   0  0  0  0  0  0  0  0  0  0  0  0
   23.6941    5.7283   -5.0989 H   0  0  0  0  0  0  0  0  0  0  0  0
   22.3911   11.4873   -3.4033 H   0  0  0  0  0  0  0  0  0  0  0  0
   22.2742   11.0148   -5.1372 H   0  0  0  0  0  0  0  0  0  0  0  0
   21.6086    8.8027   -4.5930 H   0  0  0  0  0  0  0  0  0  0  0  0
   22.0047    9.1502   -2.7925 H   0  0  0  0  0  0  0  0  0  0  0  0
   20.0100    9.8125   -2.3410 H   0  0  0  0  0  0  0  0  0  0  0  0
   19.8583   10.7562   -3.8619 H   0  0  0  0  0  0  0  0  0  0  0  0
   19.5196    8.9921   -3.8619 H   0  0  0  0  0  0  0  0  0  0  0  0
 11  4  1  0
 11 16  2  0
 11 12  1  0
 12 13  1  0
 13 14  1  0
 13 17  2  0
 14 15  2  0
 14 19  1  0
 15 16  1  0
 17 18  1  0
 18 19  2  0
 19 20  1  0
  4  1  1  0
  1  7  1  0
  1  2  2  0
  2  3  1  0
  3  5  1  0
  5  8  2  0
  5  6  1  0
  6 10  1  0
  6  7  2  0
  8  9  1  0
  9 10  2  0
 20 21  1  0
 21 22  1  0
 22 23  1  0
  2 24  1  0
  3 25  1  0
  4 26  1  0
  7 27  1  0
  9 28  1  0
 10 29  1  0
 12 30  1  0
 15 31  1  0
 16 32  1  0
 17 33  1  0
 21 34  1  1
 21 35  1  0
 22 36  1  6
 22 37  1  0
 23 38  1  1
 23 39  1  0
 23 40  1  0
M  END
>  <Pose ID>  (227)
53

>  <Score>  (227)
-6.256772994995117

>  <smiles>  (227)
CCCOc1ncc2[nH]c(Nc3c[nH]c4nccc-4c3)ccc1-2

$$$$

     RDKit          3D

 42 45  0  0  0  0  0  0  0  0999 V2000
   28.7580    9.4830  -12.0850 C   0  0  0  0  0  0  0  0  0  0  0  0
   29.4790    8.3420  -11.7790 C   0  0  0  0  0  0  0  0  0  0  0  0
   28.9940    7.4530  -10.8260 N   0  0  0  0  0  0  0  0  0  0  0  0
   27.8050    7.7210  -10.1650 C   0  0  0  0  0  0  0  0  0  0  0  0
   27.5720    9.7670  -11.4110 C   0  0  0  0  0  0  0  0  0  0  0  0
   27.0910    8.8770  -10.4560 C   0  0  0  0  0  0  0  0  0  0  0  0
   27.1470    7.0240   -9.2180 N   0  0  0  0  0  0  0  0  0  0  0  0
   26.0040    7.7120   -8.8750 C   0  0  0  0  0  0  0  0  0  0  0  0
   26.1200    8.8370   -9.7210 C   0  0  0  0  0  0  0  0  0  0  0  0
   24.9490    7.5500   -8.0120 N   0  0  0  0  0  0  0  0  0  0  0  0
   24.7180    8.3490   -6.8820 C   0  0  0  0  0  0  0  0  0  0  0  0
   23.9770    9.5150   -7.0160 C   0  0  0  0  0  0  0  0  0  0  0  0
   23.7380   10.3190   -5.9070 C   0  0  0  0  0  0  0  0  0  0  0  0
   24.2440    9.9550   -4.6650 C   0  0  0  0  0  0  0  0  0  0  0  0
   24.9870    8.7880   -4.5310 N   0  0  0  0  0  0  0  0  0  0  0  0
   25.2240    7.9850   -5.6410 C   0  0  0  0  0  0  0  0  0  0  0  0
   22.9880   11.4030   -6.2900 N   0  0  0  0  0  0  0  0  0  0  0  0
   23.5420   12.8330   -6.0750 C   0  0  1  0  0  0  0  0  0  0  0  0
   22.9010   13.3180   -4.8040 C   0  0  1  0  0  0  0  0  0  0  0  0
   23.1620   14.7900   -4.5960 C   0  0  1  0  0  0  0  0  0  0  0  0
   24.5800   15.0070   -4.5080 O   0  0  0  0  0  0  0  0  0  0  0  0
   25.1660   14.7320   -5.7960 C   0  0  1  0  0  0  0  0  0  0  0  0
   25.0190   13.2630   -6.1770 C   0  0  1  0  0  0  0  0  0  0  0  0
   29.1229   10.1688  -12.8638 H   0  0  0  0  0  0  0  0  0  0  0  0
   30.4328    8.1390  -12.2881 H   0  0  0  0  0  0  0  0  0  0  0  0
   29.5192    6.5935  -10.6107 H   0  0  0  0  0  0  0  0  0  0  0  0
   27.0183   10.6912  -11.6331 H   0  0  0  0  0  0  0  0  0  0  0  0
   25.3683    9.6401   -9.7166 H   0  0  0  0  0  0  0  0  0  0  0  0
   24.2815    6.7902   -8.2072 H   0  0  0  0  0  0  0  0  0  0  0  0
   23.5786    9.8032   -8.0000 H   0  0  0  0  0  0  0  0  0  0  0  0
   24.0564   10.5909   -3.7873 H   0  0  0  0  0  0  0  0  0  0  0  0
   25.8123    7.0614   -5.5362 H   0  0  0  0  0  0  0  0  0  0  0  0
   22.0613   11.2659   -6.7183 H   0  0  0  0  0  0  0  0  0  0  0  0
   23.2824   13.3133   -7.0299 H   0  0  0  0  0  0  0  0  0  0  0  0
   21.8155   13.1494   -4.8611 H   0  0  0  0  0  0  0  0  0  0  0  0
   23.3326   12.7620   -3.9587 H   0  0  0  0  0  0  0  0  0  0  0  0
   22.7538   15.3601   -5.4435 H   0  0  0  0  0  0  0  0  0  0  0  0
   22.6769   15.1254   -3.6675 H   0  0  0  0  0  0  0  0  0  0  0  0
   24.6646   15.3498   -6.5556 H   0  0  0  0  0  0  0  0  0  0  0  0
   26.2390   14.9683   -5.7435 H   0  0  0  0  0  0  0  0  0  0  0  0
   25.6246   12.6481   -5.4949 H   0  0  0  0  0  0  0  0  0  0  0  0
   25.3631   13.1241   -7.2125 H   0  0  0  0  0  0  0  0  0  0  0  0
 11 10  1  0
 11 12  2  0
 11 16  1  0
 12 13  1  0
 13 17  1  0
 13 14  2  0
 14 15  1  0
 15 16  2  0
 10  8  1  0
  1  2  2  0
  1  5  1  0
  2  3  1  0
  3  4  1  0
  4  6  1  0
  4  7  2  0
  5  6  2  0
  6  9  1  0
  7  8  1  0
  8  9  2  0
 17 18  1  0
 18 23  1  0
 18 19  1  0
 19 20  1  0
 20 21  1  0
 21 22  1  0
 22 23  1  0
  1 24  1  0
  2 25  1  0
  3 26  1  0
  5 27  1  0
  9 28  1  0
 10 29  1  0
 12 30  1  0
 14 31  1  0
 16 32  1  0
 17 33  1  0
 18 34  1  6
 19 35  1  6
 19 36  1  0
 20 37  1  6
 20 38  1  0
 22 39  1  6
 22 40  1  0
 23 41  1  1
 23 42  1  0
M  END
>  <Pose ID>  (228)
200

>  <Score>  (228)
-6.242131233215332

>  <smiles>  (228)
c1c[nH]c2nc(Nc3cncc(NC4CCOCC4)c3)cc-2c1

$$$$

     RDKit          3D

 33 35  0  0  0  0  0  0  0  0999 V2000
   26.6780    9.2360  -10.4020 C   0  0  0  0  0  0  0  0  0  0  0  0
   27.3130    8.0500  -10.0460 C   0  0  0  0  0  0  0  0  0  0  0  0
   28.5660    7.7490  -10.5680 N   0  0  0  0  0  0  0  0  0  0  0  0
   25.4670    9.8290  -10.0710 N   0  0  0  0  0  0  0  0  0  0  0  0
   29.1840    8.6300  -11.4490 C   0  0  0  0  0  0  0  0  0  0  0  0
   28.5490    9.8140  -11.8060 C   0  0  0  0  0  0  0  0  0  0  0  0
   27.2960   10.1160  -11.2840 C   0  0  0  0  0  0  0  0  0  0  0  0
   30.3710    8.5610  -12.0760 N   0  0  0  0  0  0  0  0  0  0  0  0
   30.5310    9.6870  -12.8500 C   0  0  0  0  0  0  0  0  0  0  0  0
   29.3160   10.3550  -12.5820 C   0  0  0  0  0  0  0  0  0  0  0  0
   25.1120   10.3580   -8.7320 C   0  0  0  0  0  0  0  0  0  0  0  0
   23.9200   10.9440   -8.3440 N   0  0  0  0  0  0  0  0  0  0  0  0
   23.7640   11.4330   -7.0530 C   0  0  0  0  0  0  0  0  0  0  0  0
   24.8040   11.3000   -6.1370 C   0  0  0  0  0  0  0  0  0  0  0  0
   25.9960   10.6990   -6.5200 C   0  0  0  0  0  0  0  0  0  0  0  0
   26.1490   10.2270   -7.8170 N   0  0  0  0  0  0  0  0  0  0  0  0
   26.9250   10.5830   -5.7010 O   0  0  0  0  0  0  0  0  0  0  0  0
   26.6670   11.2880  -11.6410 O   0  0  0  0  0  0  0  0  0  0  0  0
   27.3180   12.3880  -11.0210 C   0  0  1  0  0  0  0  0  0  0  0  0
   26.6410    7.0900   -9.0960 C   0  0  1  0  0  0  0  0  0  0  0  0
   29.0371    6.8725  -10.3019 H   0  0  0  0  0  0  0  0  0  0  0  0
   24.7588    9.9077  -10.8148 H   0  0  0  0  0  0  0  0  0  0  0  0
   31.3701    9.9838  -13.4964 H   0  0  0  0  0  0  0  0  0  0  0  0
   29.0736   11.3194  -13.0524 H   0  0  0  0  0  0  0  0  0  0  0  0
   22.8245   11.9223   -6.7564 H   0  0  0  0  0  0  0  0  0  0  0  0
   24.6814   11.6713   -5.1088 H   0  0  0  0  0  0  0  0  0  0  0  0
   27.0322    9.7794   -8.1008 H   0  0  0  0  0  0  0  0  0  0  0  0
   27.2555   12.2824   -9.9279 H   0  0  0  0  0  0  0  0  0  0  0  0
   28.3742   12.4092  -11.3275 H   0  0  0  0  0  0  0  0  0  0  0  0
   26.8284   13.3241  -11.3275 H   0  0  0  0  0  0  0  0  0  0  0  0
   26.8522    7.3917   -8.0595 H   0  0  0  0  0  0  0  0  0  0  0  0
   25.5546    7.1042   -9.2679 H   0  0  0  0  0  0  0  0  0  0  0  0
   27.0262    6.0741   -9.2679 H   0  0  0  0  0  0  0  0  0  0  0  0
  1  7  1  0
  1  4  1  0
  1  2  2  0
  2  3  1  0
  2 20  1  0
  3  5  1  0
  5  8  2  0
  5  6  1  0
  6 10  1  0
  6  7  2  0
  7 18  1  0
  8  9  1  0
  9 10  2  0
  4 11  1  0
 11 12  2  0
 11 16  1  0
 12 13  1  0
 13 14  2  0
 14 15  1  0
 15 16  1  0
 15 17  2  0
 18 19  1  0
  3 21  1  0
  4 22  1  0
  9 23  1  0
 10 24  1  0
 13 25  1  0
 14 26  1  0
 16 27  1  0
 19 28  1  1
 19 29  1  0
 19 30  1  0
 20 31  1  1
 20 32  1  0
 20 33  1  0
M  END
>  <Pose ID>  (229)
30

>  <Score>  (229)
-6.229211330413818

>  <smiles>  (229)
COc1c2ccnc-2[nH]c(C)c1Nc1nccc(=O)[nH]1

$$$$

     RDKit          3D

 18 19  0  0  0  0  0  0  0  0999 V2000
   28.6420    9.7080  -12.0190 C   0  0  0  0  0  0  0  0  0  0  0  0
   29.3020    8.4970  -11.9460 C   0  0  0  0  0  0  0  0  0  0  0  0
   28.8480    7.5120  -11.0770 N   0  0  0  0  0  0  0  0  0  0  0  0
   27.7460    7.7520  -10.2670 C   0  0  0  0  0  0  0  0  0  0  0  0
   27.5480    9.9660  -11.1950 C   0  0  0  0  0  0  0  0  0  0  0  0
   27.0960    8.9800  -10.3260 C   0  0  0  0  0  0  0  0  0  0  0  0
   27.1310    6.9710   -9.3620 N   0  0  0  0  0  0  0  0  0  0  0  0
   26.0790    7.6690   -8.8130 C   0  0  0  0  0  0  0  0  0  0  0  0
   26.1970    8.8940   -9.5090 C   0  0  0  0  0  0  0  0  0  0  0  0
   25.2520   10.0410   -9.2500 C   0  0  1  0  0  0  0  0  0  0  0  0
   28.9819   10.4736  -12.7319 H   0  0  0  0  0  0  0  0  0  0  0  0
   30.1856    8.3124  -12.5747 H   0  0  0  0  0  0  0  0  0  0  0  0
   29.3297    6.6026  -11.0337 H   0  0  0  0  0  0  0  0  0  0  0  0
   27.0455   10.9438  -11.2322 H   0  0  0  0  0  0  0  0  0  0  0  0
   25.3513    7.3604   -8.0480 H   0  0  0  0  0  0  0  0  0  0  0  0
   25.1355   10.1824   -8.1654 H   0  0  0  0  0  0  0  0  0  0  0  0
   25.6589   10.9596   -9.6979 H   0  0  0  0  0  0  0  0  0  0  0  0
   24.2725    9.8174   -9.6979 H   0  0  0  0  0  0  0  0  0  0  0  0
  1  2  2  0
  1  5  1  0
  2  3  1  0
  3  4  1  0
  4  6  1  0
  4  7  2  0
  5  6  2  0
  6  9  1  0
  7  8  1  0
  8  9  2  0
  9 10  1  0
  1 11  1  0
  2 12  1  0
  3 13  1  0
  5 14  1  0
  8 15  1  0
 10 16  1  1
 10 17  1  0
 10 18  1  0
M  END
>  <Pose ID>  (230)
191

>  <Score>  (230)
-6.228988170623779

>  <smiles>  (230)
Cc1cnc2[nH]cccc1-2

$$$$

     RDKit          3D

 33 36  0  0  0  0  0  0  0  0999 V2000
   27.3520    7.9550  -10.1560 C   0  0  0  0  0  0  0  0  0  0  0  0
   28.4610    7.1880  -10.4760 C   0  0  0  0  0  0  0  0  0  0  0  0
   29.4420    7.7020  -11.3170 N   0  0  0  0  0  0  0  0  0  0  0  0
   26.5570    7.2560   -9.3300 N   0  0  0  0  0  0  0  0  0  0  0  0
   29.3100    8.9840  -11.8350 C   0  0  0  0  0  0  0  0  0  0  0  0
   28.1980    9.7510  -11.5140 C   0  0  0  0  0  0  0  0  0  0  0  0
   27.2190    9.2400  -10.6750 C   0  0  0  0  0  0  0  0  0  0  0  0
   30.1120    9.6880  -12.6550 N   0  0  0  0  0  0  0  0  0  0  0  0
   29.5400   10.9180  -12.8810 C   0  0  0  0  0  0  0  0  0  0  0  0
   28.3600   10.7970  -12.1170 C   0  0  0  0  0  0  0  0  0  0  0  0
   25.9740    7.8150   -8.1510 C   0  0  0  0  0  0  0  0  0  0  0  0
   25.3410    6.9580   -7.2590 N   0  0  0  0  0  0  0  0  0  0  0  0
   24.6600    7.4750   -6.1630 C   0  0  0  0  0  0  0  0  0  0  0  0
   24.6120    8.8490   -5.9600 C   0  0  0  0  0  0  0  0  0  0  0  0
   25.2450    9.7070   -6.8530 C   0  0  0  0  0  0  0  0  0  0  0  0
   25.9520    9.1840   -7.9320 C   0  0  0  0  0  0  0  0  0  0  0  0
   23.9550    6.8350   -5.1380 C   0  0  0  0  0  0  0  0  0  0  0  0
   23.6120    7.8300   -4.2490 N   0  0  0  0  0  0  0  0  0  0  0  0
   23.9920    9.0120   -4.6120 C   0  0  0  0  0  0  0  0  0  0  0  0
   27.3450   11.9120  -12.0510 C   0  0  1  0  0  0  0  0  0  0  0  0
   28.5652    6.1730  -10.0649 H   0  0  0  0  0  0  0  0  0  0  0  0
   30.2662    7.1322  -11.5557 H   0  0  0  0  0  0  0  0  0  0  0  0
   26.3581    6.2711   -9.5566 H   0  0  0  0  0  0  0  0  0  0  0  0
   26.3391    9.8489  -10.4201 H   0  0  0  0  0  0  0  0  0  0  0  0
   29.9016   11.7610  -13.4881 H   0  0  0  0  0  0  0  0  0  0  0  0
   25.3764    5.9397   -7.4099 H   0  0  0  0  0  0  0  0  0  0  0  0
   25.1871   10.7957   -6.7070 H   0  0  0  0  0  0  0  0  0  0  0  0
   26.4940    9.8577   -8.6119 H   0  0  0  0  0  0  0  0  0  0  0  0
   23.7232    5.7626   -5.0586 H   0  0  0  0  0  0  0  0  0  0  0  0
   23.8809    9.9469   -4.0431 H   0  0  0  0  0  0  0  0  0  0  0  0
   27.1289   12.1493  -10.9989 H   0  0  0  0  0  0  0  0  0  0  0  0
   27.7473   12.8043  -12.5530 H   0  0  0  0  0  0  0  0  0  0  0  0
   26.4190   11.5951  -12.5530 H   0  0  0  0  0  0  0  0  0  0  0  0
  4  1  1  0
  4 11  1  0
  1  7  1  0
  1  2  2  0
  2  3  1  0
  3  5  1  0
  5  8  2  0
  5  6  1  0
  6 10  1  0
  6  7  2  0
  8  9  1  0
  9 10  2  0
 10 20  1  0
 11 16  2  0
 11 12  1  0
 12 13  1  0
 13 14  1  0
 13 17  2  0
 14 15  2  0
 14 19  1  0
 15 16  1  0
 17 18  1  0
 18 19  2  0
  2 21  1  0
  3 22  1  0
  4 23  1  0
  7 24  1  0
  9 25  1  0
 12 26  1  0
 15 27  1  0
 16 28  1  0
 17 29  1  0
 19 30  1  0
 20 31  1  1
 20 32  1  0
 20 33  1  0
M  END
>  <Pose ID>  (231)
40

>  <Score>  (231)
-6.226433753967285

>  <smiles>  (231)
Cc1cnc2[nH]cc(Nc3ccc4cncc-4[nH]3)cc1-2

$$$$

     RDKit          3D

 36 39  0  0  0  0  0  0  0  0999 V2000
   27.3330    7.8870  -10.2020 C   0  0  0  0  0  0  0  0  0  0  0  0
   28.4570    7.1470  -10.5300 C   0  0  0  0  0  0  0  0  0  0  0  0
   29.4480    7.7040  -11.3260 N   0  0  0  0  0  0  0  0  0  0  0  0
   26.5260    7.1470   -9.4240 N   0  0  0  0  0  0  0  0  0  0  0  0
   29.3160    9.0090  -11.7920 C   0  0  0  0  0  0  0  0  0  0  0  0
   28.1890    9.7500  -11.4600 C   0  0  0  0  0  0  0  0  0  0  0  0
   27.1960    9.1930  -10.6670 C   0  0  0  0  0  0  0  0  0  0  0  0
   30.1270    9.7550  -12.5580 N   0  0  0  0  0  0  0  0  0  0  0  0
   29.5890   10.9300  -12.7410 C   0  0  0  0  0  0  0  0  0  0  0  0
   28.3810   10.8660  -12.0590 C   0  0  0  0  0  0  0  0  0  0  0  0
   25.9130    7.6450   -8.2350 C   0  0  0  0  0  0  0  0  0  0  0  0
   25.2680    6.7450   -7.3950 N   0  0  0  0  0  0  0  0  0  0  0  0
   24.5570    7.2060   -6.2950 C   0  0  0  0  0  0  0  0  0  0  0  0
   24.4920    8.5710   -6.0320 C   0  0  0  0  0  0  0  0  0  0  0  0
   25.1350    9.4730   -6.8720 C   0  0  0  0  0  0  0  0  0  0  0  0
   25.8700    9.0050   -7.9580 C   0  0  0  0  0  0  0  0  0  0  0  0
   23.9830    6.3980   -5.5430 O   0  0  0  0  0  0  0  0  0  0  0  0
   29.9450   12.0890  -13.4210 C   0  0  0  0  0  0  0  0  0  0  0  0
   29.0900   13.1840  -13.4180 C   0  0  0  0  0  0  0  0  0  0  0  0
   27.8810   13.1220  -12.7370 C   0  0  0  0  0  0  0  0  0  0  0  0
   27.5260   11.9630  -12.0580 N   0  0  0  0  0  0  0  0  0  0  0  0
   26.8800   14.0570  -12.5880 O   0  0  0  0  0  0  0  0  0  0  0  0
   27.4100   15.0890  -11.7530 C   0  0  1  0  0  0  0  0  0  0  0  0
   28.5642    6.1169  -10.1592 H   0  0  0  0  0  0  0  0  0  0  0  0
   30.2817    7.1514  -11.5721 H   0  0  0  0  0  0  0  0  0  0  0  0
   26.3403    6.1719   -9.6990 H   0  0  0  0  0  0  0  0  0  0  0  0
   26.3035    9.7808  -10.4063 H   0  0  0  0  0  0  0  0  0  0  0  0
   25.3175    5.7346   -7.5887 H   0  0  0  0  0  0  0  0  0  0  0  0
   23.9315    8.9365   -5.1589 H   0  0  0  0  0  0  0  0  0  0  0  0
   25.0633   10.5536   -6.6792 H   0  0  0  0  0  0  0  0  0  0  0  0
   26.4172    9.7134   -8.5973 H   0  0  0  0  0  0  0  0  0  0  0  0
   30.9022   12.1390  -13.9606 H   0  0  0  0  0  0  0  0  0  0  0  0
   29.3709   14.1015  -13.9558 H   0  0  0  0  0  0  0  0  0  0  0  0
   27.2692   14.8148  -10.6971 H   0  0  0  0  0  0  0  0  0  0  0  0
   28.4833   15.2129  -11.9597 H   0  0  0  0  0  0  0  0  0  0  0  0
   26.8854   16.0335  -11.9597 H   0  0  0  0  0  0  0  0  0  0  0  0
  1  7  1  0
  1  2  2  0
  1  4  1  0
  2  3  1  0
  3  5  1  0
  5  8  2  0
  5  6  1  0
  6 10  1  0
  6  7  2  0
  8  9  1  0
  9 18  1  0
  9 10  2  0
 10 21  1  0
 18 19  2  0
 19 20  1  0
 20 22  1  0
 20 21  2  0
  4 11  1  0
 11 16  2  0
 11 12  1  0
 12 13  1  0
 13 14  1  0
 13 17  2  0
 14 15  2  0
 15 16  1  0
 22 23  1  0
  2 24  1  0
  3 25  1  0
  4 26  1  0
  7 27  1  0
 12 28  1  0
 14 29  1  0
 15 30  1  0
 16 31  1  0
 18 32  1  0
 19 33  1  0
 23 34  1  1
 23 35  1  0
 23 36  1  0
M  END
>  <Pose ID>  (232)
99

>  <Score>  (232)
-6.226254463195801

>  <smiles>  (232)
COc1ccc2nc3[nH]cc(Nc4cccc(=O)[nH]4)cc-3c2n1

$$$$

     RDKit          3D

 38 41  0  0  0  0  0  0  0  0999 V2000
   26.2220    9.1990   -8.8740 C   0  0  0  0  0  0  0  0  0  0  0  0
   25.6600   10.3860   -8.3930 N   0  0  0  0  0  0  0  0  0  0  0  0
   25.8650    7.9110   -8.4790 N   0  0  0  0  0  0  0  0  0  0  0  0
   26.5150    6.8140   -9.0350 C   0  0  0  0  0  0  0  0  0  0  0  0
   27.5170    6.9970   -9.9750 N   0  0  0  0  0  0  0  0  0  0  0  0
   27.8600    8.2680  -10.3610 C   0  0  0  0  0  0  0  0  0  0  0  0
   27.3370    9.4760   -9.9140 C   0  0  0  0  0  0  0  0  0  0  0  0
   24.4990   10.9790   -9.0730 C   0  0  1  0  0  0  0  0  0  0  0  0
   23.9550   12.1380   -8.5910 C   0  0  0  0  0  0  0  0  0  0  0  0
   26.6140   10.9880   -7.4740 C   0  0  1  0  0  0  0  0  0  0  0  0
   25.9010   11.5560   -6.1730 C   0  0  1  0  0  0  0  0  0  0  0  0
   24.8660   12.6280   -6.5760 C   0  0  1  0  0  0  0  0  0  0  0  0
   24.6630   13.0170   -7.8130 N   0  0  0  0  0  0  0  0  0  0  0  0
   22.6960   12.4930   -8.8440 O   0  0  0  0  0  0  0  0  0  0  0  0
   28.8740    8.2570  -11.3110 C   0  0  0  0  0  0  0  0  0  0  0  0
   29.3660    9.4550  -11.8150 N   0  0  0  0  0  0  0  0  0  0  0  0
   28.8440   10.6630  -11.3680 C   0  0  0  0  0  0  0  0  0  0  0  0
   27.8310   10.6730  -10.4180 C   0  0  0  0  0  0  0  0  0  0  0  0
   29.3440   11.8750  -11.8790 C   0  0  0  0  0  0  0  0  0  0  0  0
   29.3350   12.1950  -13.3250 C   0  0  0  0  0  0  0  0  0  0  0  0
   29.9790   12.8210  -11.0860 O   0  0  0  0  0  0  0  0  0  0  0  0
   29.7890   13.2650  -13.5710 C   0  0  0  0  0  0  0  0  0  0  0  0
   30.3140   13.7780  -11.9950 C   0  0  0  0  0  0  0  0  0  0  0  0
   26.2324    5.7965   -8.7272 H   0  0  0  0  0  0  0  0  0  0  0  0
   24.8029   11.1761  -10.1117 H   0  0  0  0  0  0  0  0  0  0  0  0
   23.7024   10.2363   -8.9187 H   0  0  0  0  0  0  0  0  0  0  0  0
   27.3487   10.2263   -7.1738 H   0  0  0  0  0  0  0  0  0  0  0  0
   27.1034   11.8272   -7.9900 H   0  0  0  0  0  0  0  0  0  0  0  0
   25.3919   10.7352   -5.6466 H   0  0  0  0  0  0  0  0  0  0  0  0
   26.6547   12.0067   -5.5106 H   0  0  0  0  0  0  0  0  0  0  0  0
   23.8951   12.2572   -6.2156 H   0  0  0  0  0  0  0  0  0  0  0  0
   25.3170   13.5320   -6.1410 H   0  0  0  0  0  0  0  0  0  0  0  0
   25.0104   13.9173   -8.1730 H   0  0  0  0  0  0  0  0  0  0  0  0
   29.2871    7.3005  -11.6639 H   0  0  0  0  0  0  0  0  0  0  0  0
   27.4192   11.6297  -10.0641 H   0  0  0  0  0  0  0  0  0  0  0  0
   28.9470   11.5108  -14.0939 H   0  0  0  0  0  0  0  0  0  0  0  0
   29.8584   13.7894  -14.5354 H   0  0  0  0  0  0  0  0  0  0  0  0
   30.8322   14.7216  -11.7690 H   0  0  0  0  0  0  0  0  0  0  0  0
  1  7  1  0
  1  3  2  0
  1  2  1  0
  2  8  1  0
  2 10  1  0
  3  4  1  0
  4  5  2  0
  5  6  1  0
  6 15  1  0
  6  7  2  0
  7 18  1  0
  8  9  1  0
  9 14  2  0
  9 13  1  0
 10 11  1  0
 11 12  1  0
 12 13  1  0
 15 16  2  0
 16 17  1  0
 17 19  1  0
 17 18  2  0
 19 20  2  0
 19 21  1  0
 20 22  1  0
 21 23  1  0
 22 23  2  0
  4 24  1  0
  8 25  1  6
  8 26  1  0
 10 27  1  1
 10 28  1  0
 11 29  1  1
 11 30  1  0
 12 31  1  1
 12 32  1  0
 13 33  1  0
 15 34  1  0
 18 35  1  0
 20 36  1  0
 22 37  1  0
 23 38  1  0
M  END
>  <Pose ID>  (233)
50

>  <Score>  (233)
-6.2152886390686035

>  <smiles>  (233)
O=C1CN(c2ncnc3cnc(-c4ccco4)cc23)CCCN1

$$$$

     RDKit          3D

 28 31  0  0  0  0  0  0  0  0999 V2000
   27.2130    8.2720   -9.5760 C   0  0  0  0  0  0  0  0  0  0  0  0
   27.1410    7.0860   -8.8530 N   0  0  0  0  0  0  0  0  0  0  0  0
   26.2440    6.9690   -7.7990 C   0  0  0  0  0  0  0  0  0  0  0  0
   25.4190    8.0380   -7.4670 C   0  0  0  0  0  0  0  0  0  0  0  0
   25.4890    9.2220   -8.1900 N   0  0  0  0  0  0  0  0  0  0  0  0
   26.3880    9.3400   -9.2440 C   0  0  0  0  0  0  0  0  0  0  0  0
   24.4670    8.0970   -6.4550 C   0  0  0  0  0  0  0  0  0  0  0  0
   24.1970    7.0020   -5.6410 C   0  0  0  0  0  0  0  0  0  0  0  0
   23.7550    9.2780   -6.2850 C   0  0  0  0  0  0  0  0  0  0  0  0
   23.2170    7.0880   -4.6610 N   0  0  0  0  0  0  0  0  0  0  0  0
   22.5050    8.2710   -4.4920 C   0  0  0  0  0  0  0  0  0  0  0  0
   24.3780   10.1010   -7.4360 N   0  0  0  0  0  0  0  0  0  0  0  0
   22.7740    9.3650   -5.3040 C   0  0  0  0  0  0  0  0  0  0  0  0
   28.1210    8.3900  -10.6440 C   0  0  0  0  0  0  0  0  0  0  0  0
   29.1640    9.3090  -10.6440 O   0  0  0  0  0  0  0  0  0  0  0  0
   29.7490    9.0950  -11.8440 C   0  0  0  0  0  0  0  0  0  0  0  0
   29.1270    8.1090  -12.5520 N   0  0  0  0  0  0  0  0  0  0  0  0
   28.0910    7.6400  -11.8030 C   0  0  0  0  0  0  0  0  0  0  0  0
   22.0010   10.6490   -5.1210 C   0  0  1  0  0  0  0  0  0  0  0  0
   26.1863    6.0311   -7.2272 H   0  0  0  0  0  0  0  0  0  0  0  0
   26.4463   10.2784   -9.8150 H   0  0  0  0  0  0  0  0  0  0  0  0
   24.7605    6.0667   -5.7737 H   0  0  0  0  0  0  0  0  0  0  0  0
   21.7291    8.3399   -3.7154 H   0  0  0  0  0  0  0  0  0  0  0  0
   30.6253    9.6518  -12.2073 H   0  0  0  0  0  0  0  0  0  0  0  0
   27.3844    6.8385  -12.0643 H   0  0  0  0  0  0  0  0  0  0  0  0
   21.8781   10.8531   -4.0471 H   0  0  0  0  0  0  0  0  0  0  0  0
   22.5503   11.4779   -5.5913 H   0  0  0  0  0  0  0  0  0  0  0  0
   21.0114   10.5514   -5.5913 H   0  0  0  0  0  0  0  0  0  0  0  0
  1 14  1  0
  1  6  2  0
  1  2  1  0
  2  3  2  0
  3  4  1  0
  4  5  1  0
  4  7  2  0
  5  6  1  0
  5 12  1  0
  7  9  1  0
  7  8  1  0
  8 10  2  0
  9 12  2  0
  9 13  1  0
 10 11  1  0
 11 13  2  0
 13 19  1  0
 14 18  2  0
 14 15  1  0
 15 16  1  0
 16 17  2  0
 17 18  1  0
  3 20  1  0
  6 21  1  0
  8 22  1  0
 11 23  1  0
 16 24  1  0
 18 25  1  0
 19 26  1  1
 19 27  1  0
 19 28  1  0
M  END
>  <Pose ID>  (234)
77

>  <Score>  (234)
-6.210982799530029

>  <smiles>  (234)
Cc1cncc2c1nn1cc(-c3cnco3)ncc21

$$$$

     RDKit          3D

 20 21  0  0  0  0  0  0  0  0999 V2000
   28.8830    6.9850  -10.8700 C   0  0  0  0  0  0  0  0  0  0  0  0
   27.9030    7.1780   -9.9030 N   0  0  0  0  0  0  0  0  0  0  0  0
   27.3320    8.4330   -9.7330 C   0  0  0  0  0  0  0  0  0  0  0  0
   27.7380    9.4950  -10.5320 C   0  0  0  0  0  0  0  0  0  0  0  0
   27.1650   10.7650  -10.2810 C   0  0  0  0  0  0  0  0  0  0  0  0
   26.1930   10.9190   -9.2990 C   0  0  0  0  0  0  0  0  0  0  0  0
   25.7900    9.8240   -8.5440 C   0  0  0  0  0  0  0  0  0  0  0  0
   26.3570    8.5770   -8.7690 C   0  0  0  0  0  0  0  0  0  0  0  0
   29.2900    8.0470  -11.6680 C   0  0  0  0  0  0  0  0  0  0  0  0
   28.7180    9.3030  -11.4990 C   0  0  0  0  0  0  0  0  0  0  0  0
   25.9090    7.3840   -7.9610 C   0  0  1  0  0  0  0  0  0  0  0  0
   29.3361    5.9916  -11.0033 H   0  0  0  0  0  0  0  0  0  0  0  0
   27.4913   11.6366  -10.8674 H   0  0  0  0  0  0  0  0  0  0  0  0
   25.7433   11.9067   -9.1198 H   0  0  0  0  0  0  0  0  0  0  0  0
   25.0208    9.9456   -7.7671 H   0  0  0  0  0  0  0  0  0  0  0  0
   30.0649    7.8941  -12.4336 H   0  0  0  0  0  0  0  0  0  0  0  0
   29.0408   10.1442  -12.1301 H   0  0  0  0  0  0  0  0  0  0  0  0
   25.9954    7.6140   -6.8888 H   0  0  0  0  0  0  0  0  0  0  0  0
   24.8617    7.1499   -8.2026 H   0  0  0  0  0  0  0  0  0  0  0  0
   26.5433    6.5184   -8.2026 H   0  0  0  0  0  0  0  0  0  0  0  0
  1  9  2  0
  1  2  1  0
  2  3  2  0
  3  4  1  0
  3  8  1  0
  4 10  2  0
  4  5  1  0
  5  6  2  0
  6  7  1  0
  7  8  2  0
  8 11  1  0
  9 10  1  0
  1 12  1  0
  5 13  1  0
  6 14  1  0
  7 15  1  0
  9 16  1  0
 10 17  1  0
 11 18  1  1
 11 19  1  0
 11 20  1  0
M  END
>  <Pose ID>  (235)
7

>  <Score>  (235)
-6.2085862159729

>  <smiles>  (235)
Cc1cccc2cccnc12

$$$$

     RDKit          3D

 20 21  0  0  0  0  0  0  0  0999 V2000
   28.3250    9.8750  -11.3410 C   0  0  0  0  0  0  0  0  0  0  0  0
   29.0160    8.6770  -11.4810 C   0  0  0  0  0  0  0  0  0  0  0  0
   28.5980    7.5130  -10.8450 N   0  0  0  0  0  0  0  0  0  0  0  0
   27.1440    9.8670  -10.5890 C   0  0  0  0  0  0  0  0  0  0  0  0
   26.7100    8.7100   -9.9540 C   0  0  0  0  0  0  0  0  0  0  0  0
   27.4360    7.5310  -10.0820 C   0  0  0  0  0  0  0  0  0  0  0  0
   27.0470    6.4970   -9.5130 O   0  0  0  0  0  0  0  0  0  0  0  0
   30.1810    8.6300  -12.2400 N   0  0  0  0  0  0  0  0  0  0  0  0
   30.6530    9.7810  -12.8590 C   0  0  0  0  0  0  0  0  0  0  0  0
   29.9620   10.9790  -12.7200 C   0  0  0  0  0  0  0  0  0  0  0  0
   28.7950   11.0210  -11.9500 C   0  0  0  0  0  0  0  0  0  0  0  0
   25.4500    8.7320   -9.1240 C   0  0  1  0  0  0  0  0  0  0  0  0
   29.1446    6.6450  -10.9385 H   0  0  0  0  0  0  0  0  0  0  0  0
   26.5516   10.7895  -10.4997 H   0  0  0  0  0  0  0  0  0  0  0  0
   31.5740    9.7441  -13.4593 H   0  0  0  0  0  0  0  0  0  0  0  0
   30.3313   11.8901  -13.2134 H   0  0  0  0  0  0  0  0  0  0  0  0
   28.2507   11.9693  -11.8296 H   0  0  0  0  0  0  0  0  0  0  0  0
   25.7142    8.7274   -8.0562 H   0  0  0  0  0  0  0  0  0  0  0  0
   24.8743    9.6403   -9.3554 H   0  0  0  0  0  0  0  0  0  0  0  0
   24.8430    7.8443   -9.3554 H   0  0  0  0  0  0  0  0  0  0  0  0
  1 11  1  0
  1  2  2  0
  1  4  1  0
  2  8  1  0
  2  3  1  0
  3  6  1  0
  4  5  2  0
  5  6  1  0
  5 12  1  0
  6  7  2  0
  8  9  2  0
  9 10  1  0
 10 11  2  0
  3 13  1  0
  4 14  1  0
  9 15  1  0
 10 16  1  0
 11 17  1  0
 12 18  1  1
 12 19  1  0
 12 20  1  0
M  END
>  <Pose ID>  (236)
8

>  <Score>  (236)
-6.205715656280518

>  <smiles>  (236)
Cc1cc2cccnc2[nH]c1=O

$$$$

     RDKit          3D

 39 42  0  0  0  0  0  0  0  0999 V2000
   27.3830    7.9560  -10.1540 C   0  0  0  0  0  0  0  0  0  0  0  0
   28.4950    7.1880  -10.4640 C   0  0  0  0  0  0  0  0  0  0  0  0
   29.4800    7.7010  -11.3000 N   0  0  0  0  0  0  0  0  0  0  0  0
   26.5820    7.2590   -9.3300 N   0  0  0  0  0  0  0  0  0  0  0  0
   29.3520    8.9810  -11.8230 C   0  0  0  0  0  0  0  0  0  0  0  0
   28.2370    9.7490  -11.5120 C   0  0  0  0  0  0  0  0  0  0  0  0
   27.2520    9.2400  -10.6770 C   0  0  0  0  0  0  0  0  0  0  0  0
   30.1590    9.6820  -12.6390 N   0  0  0  0  0  0  0  0  0  0  0  0
   29.5880   10.9130  -12.8730 C   0  0  0  0  0  0  0  0  0  0  0  0
   28.4030   10.7940  -12.1170 C   0  0  0  0  0  0  0  0  0  0  0  0
   25.9920    7.8210   -8.1580 C   0  0  0  0  0  0  0  0  0  0  0  0
   25.3530    6.9680   -7.2670 N   0  0  0  0  0  0  0  0  0  0  0  0
   24.6650    7.4870   -6.1760 C   0  0  0  0  0  0  0  0  0  0  0  0
   24.6160    8.8620   -5.9790 C   0  0  0  0  0  0  0  0  0  0  0  0
   25.2550    9.7170   -6.8690 C   0  0  0  0  0  0  0  0  0  0  0  0
   25.9680    9.1930   -7.9430 C   0  0  0  0  0  0  0  0  0  0  0  0
   23.9540    6.8500   -5.1560 C   0  0  0  0  0  0  0  0  0  0  0  0
   23.6050    7.8480   -4.2700 N   0  0  0  0  0  0  0  0  0  0  0  0
   23.9870    9.0290   -4.6350 C   0  0  0  0  0  0  0  0  0  0  0  0
   25.1740   11.2120   -6.6740 C   0  0  2  0  0  0  0  0  0  0  0  0
   26.5090   11.6550   -6.1240 C   0  0  1  0  0  0  0  0  0  0  0  0
   24.2270   11.6090   -5.5300 C   0  0  1  0  0  0  0  0  0  0  0  0
   28.5976    6.1744  -10.0491 H   0  0  0  0  0  0  0  0  0  0  0  0
   30.3059    7.1309  -11.5318 H   0  0  0  0  0  0  0  0  0  0  0  0
   26.3847    6.2734   -9.5547 H   0  0  0  0  0  0  0  0  0  0  0  0
   26.3703    9.8492  -10.4290 H   0  0  0  0  0  0  0  0  0  0  0  0
   29.9538   11.7543  -13.4800 H   0  0  0  0  0  0  0  0  0  0  0  0
   27.6629   11.6068  -12.0754 H   0  0  0  0  0  0  0  0  0  0  0  0
   25.3890    5.9493   -7.4149 H   0  0  0  0  0  0  0  0  0  0  0  0
   26.5128    9.8656   -8.6219 H   0  0  0  0  0  0  0  0  0  0  0  0
   23.7214    5.7779   -5.0762 H   0  0  0  0  0  0  0  0  0  0  0  0
   23.8718    9.9658   -4.0701 H   0  0  0  0  0  0  0  0  0  0  0  0
   24.8582   11.6427   -7.6356 H   0  0  0  0  0  0  0  0  0  0  0  0
   26.4747   11.6436   -5.0246 H   0  0  0  0  0  0  0  0  0  0  0  0
   27.2952   10.9696   -6.4734 H   0  0  0  0  0  0  0  0  0  0  0  0
   26.7295   12.6745   -6.4734 H   0  0  0  0  0  0  0  0  0  0  0  0
   24.7129   11.4053   -4.5644 H   0  0  0  0  0  0  0  0  0  0  0  0
   23.9925   12.6812   -5.6035 H   0  0  0  0  0  0  0  0  0  0  0  0
   23.2980   11.0246   -5.6035 H   0  0  0  0  0  0  0  0  0  0  0  0
 11  4  1  0
 11 16  2  0
 11 12  1  0
 12 13  1  0
 13 14  1  0
 13 17  2  0
 14 15  2  0
 14 19  1  0
 15 16  1  0
 15 20  1  0
 17 18  1  0
 18 19  2  0
 20 21  1  0
 20 22  1  0
  4  1  1  0
  1  7  1  0
  1  2  2  0
  2  3  1  0
  3  5  1  0
  5  8  2  0
  5  6  1  0
  6 10  1  0
  6  7  2  0
  8  9  1  0
  9 10  2  0
  2 23  1  0
  3 24  1  0
  4 25  1  0
  7 26  1  0
  9 27  1  0
 10 28  1  0
 12 29  1  0
 16 30  1  0
 17 31  1  0
 19 32  1  0
 20 33  1  6
 21 34  1  1
 21 35  1  0
 21 36  1  0
 22 37  1  1
 22 38  1  0
 22 39  1  0
M  END
>  <Pose ID>  (237)
89

>  <Score>  (237)
-6.203296184539795

>  <smiles>  (237)
CC(C)c1cc(Nc2c[nH]c3nccc-3c2)[nH]c2cncc1-2

$$$$

     RDKit          3D

 29 31  0  0  0  0  0  0  0  0999 V2000
   28.6110    9.5590  -12.0560 C   0  0  0  0  0  0  0  0  0  0  0  0
   29.3020    8.3760  -11.8680 C   0  0  0  0  0  0  0  0  0  0  0  0
   28.8290    7.4360  -10.9590 N   0  0  0  0  0  0  0  0  0  0  0  0
   27.6800    7.6940  -10.2230 C   0  0  0  0  0  0  0  0  0  0  0  0
   27.4690    9.8340  -11.3050 C   0  0  0  0  0  0  0  0  0  0  0  0
   26.9990    8.8920  -10.3960 C   0  0  0  0  0  0  0  0  0  0  0  0
   27.0410    6.9520   -9.3000 N   0  0  0  0  0  0  0  0  0  0  0  0
   25.9420    7.6510   -8.8540 C   0  0  0  0  0  0  0  0  0  0  0  0
   26.0610    8.8310   -9.6200 C   0  0  0  0  0  0  0  0  0  0  0  0
   24.9210    7.4630   -7.9550 N   0  0  0  0  0  0  0  0  0  0  0  0
   24.7730    8.1820   -6.7600 C   0  0  0  0  0  0  0  0  0  0  0  0
   24.0690    9.3800   -6.7740 C   0  0  0  0  0  0  0  0  0  0  0  0
   23.9130   10.1070   -5.6000 C   0  0  0  0  0  0  0  0  0  0  0  0
   24.4600    9.6360   -4.4120 C   0  0  0  0  0  0  0  0  0  0  0  0
   25.1640    8.4370   -4.3990 N   0  0  0  0  0  0  0  0  0  0  0  0
   25.3200    7.7100   -5.5740 C   0  0  0  0  0  0  0  0  0  0  0  0
   26.7460   11.1470  -11.4770 C   0  0  1  0  0  0  0  0  0  0  0  0
   28.9641   10.2866  -12.8017 H   0  0  0  0  0  0  0  0  0  0  0  0
   30.2232    8.1791  -12.4359 H   0  0  0  0  0  0  0  0  0  0  0  0
   29.3320    6.5463  -10.8313 H   0  0  0  0  0  0  0  0  0  0  0  0
   25.3409    9.6567   -9.5211 H   0  0  0  0  0  0  0  0  0  0  0  0
   24.2157    6.7448   -8.1733 H   0  0  0  0  0  0  0  0  0  0  0  0
   23.6355    9.7526   -7.7138 H   0  0  0  0  0  0  0  0  0  0  0  0
   23.3564   11.0557   -5.6108 H   0  0  0  0  0  0  0  0  0  0  0  0
   24.3360   10.2115   -3.4828 H   0  0  0  0  0  0  0  0  0  0  0  0
   25.8766    6.7612   -5.5641 H   0  0  0  0  0  0  0  0  0  0  0  0
   26.5133   11.5697  -10.4885 H   0  0  0  0  0  0  0  0  0  0  0  0
   27.3856   11.8475  -12.0340 H   0  0  0  0  0  0  0  0  0  0  0  0
   25.8120   10.9811  -12.0340 H   0  0  0  0  0  0  0  0  0  0  0  0
  1  2  2  0
  1  5  1  0
  2  3  1  0
  3  4  1  0
  4  6  1  0
  4  7  2  0
  5 17  1  0
  5  6  2  0
  6  9  1  0
  7  8  1  0
  8  9  2  0
  8 10  1  0
 10 11  1  0
 11 12  2  0
 11 16  1  0
 12 13  1  0
 13 14  2  0
 14 15  1  0
 15 16  2  0
  1 18  1  0
  2 19  1  0
  3 20  1  0
  9 21  1  0
 10 22  1  0
 12 23  1  0
 13 24  1  0
 14 25  1  0
 16 26  1  0
 17 27  1  1
 17 28  1  0
 17 29  1  0
M  END
>  <Pose ID>  (238)
198

>  <Score>  (238)
-6.1997971534729

>  <smiles>  (238)
Cc1cc[nH]c2nc(Nc3cccnc3)cc1-2

$$$$

     RDKit          3D

 38 41  0  0  0  0  0  0  0  0999 V2000
   27.2230    8.2470  -10.2090 C   0  0  0  0  0  0  0  0  0  0  0  0
   27.9570    7.3030  -10.9140 C   0  0  0  0  0  0  0  0  0  0  0  0
   28.9650    7.7110  -11.7790 N   0  0  0  0  0  0  0  0  0  0  0  0
   29.2410    9.0630  -11.9370 C   0  0  0  0  0  0  0  0  0  0  0  0
   26.2090    7.6580   -9.3390 O   0  0  0  0  0  0  0  0  0  0  0  0
   28.5040   10.0090  -11.2330 C   0  0  0  0  0  0  0  0  0  0  0  0
   27.4970    9.6000  -10.3650 C   0  0  0  0  0  0  0  0  0  0  0  0
   30.1520    9.6950  -12.7020 N   0  0  0  0  0  0  0  0  0  0  0  0
   30.0230   11.0520  -12.5150 C   0  0  0  0  0  0  0  0  0  0  0  0
   28.9620   11.0830  -11.5860 C   0  0  0  0  0  0  0  0  0  0  0  0
   25.5470    8.3550   -8.3200 C   0  0  0  0  0  0  0  0  0  0  0  0
   25.0690    9.6170   -8.6280 N   0  0  0  0  0  0  0  0  0  0  0  0
   24.4830   10.1380   -7.4910 N   0  0  0  0  0  0  0  0  0  0  0  0
   24.5780    9.2290   -6.5090 C   0  0  0  0  0  0  0  0  0  0  0  0
   25.2020    8.1500   -6.9950 C   0  0  0  0  0  0  0  0  0  0  0  0
   23.9800   11.2500   -7.5060 C   0  0  0  0  0  0  0  0  0  0  0  0
   23.3690   11.9030   -6.4410 C   0  0  0  0  0  0  0  0  0  0  0  0
   24.1130   11.8940   -8.7300 C   0  0  0  0  0  0  0  0  0  0  0  0
   23.6390   13.1900   -8.8900 C   0  0  0  0  0  0  0  0  0  0  0  0
   23.0270   13.8420   -7.8250 N   0  0  0  0  0  0  0  0  0  0  0  0
   22.8860   13.2460   -6.5940 C   0  0  0  0  0  0  0  0  0  0  0  0
   28.4170   12.3850  -11.0530 C   0  0  1  0  0  0  0  0  0  0  0  0
   25.4860    6.8920   -6.2130 C   0  0  1  0  0  0  0  0  0  0  0  0
   27.7407    6.2319  -10.7879 H   0  0  0  0  0  0  0  0  0  0  0  0
   29.5080    7.0102  -12.3034 H   0  0  0  0  0  0  0  0  0  0  0  0
   26.9180   10.3473   -9.8025 H   0  0  0  0  0  0  0  0  0  0  0  0
   30.5891   11.8812  -12.9644 H   0  0  0  0  0  0  0  0  0  0  0  0
   24.2066    9.3500   -5.4807 H   0  0  0  0  0  0  0  0  0  0  0  0
   23.2552   11.3875   -5.4760 H   0  0  0  0  0  0  0  0  0  0  0  0
   24.5942   11.3770   -9.5733 H   0  0  0  0  0  0  0  0  0  0  0  0
   23.7477   13.7001   -9.8585 H   0  0  0  0  0  0  0  0  0  0  0  0
   22.4185   13.7808   -5.7541 H   0  0  0  0  0  0  0  0  0  0  0  0
   28.4260   12.3635   -9.9532 H   0  0  0  0  0  0  0  0  0  0  0  0
   29.0423   13.2172  -11.4086 H   0  0  0  0  0  0  0  0  0  0  0  0
   27.3853   12.5236  -11.4086 H   0  0  0  0  0  0  0  0  0  0  0  0
   25.4366    7.1107   -5.1361 H   0  0  0  0  0  0  0  0  0  0  0  0
   24.7382    6.1261   -6.4663 H   0  0  0  0  0  0  0  0  0  0  0  0
   26.4903    6.5217   -6.4663 H   0  0  0  0  0  0  0  0  0  0  0  0
  5  1  1  0
  5 11  1  0
  1  2  2  0
  1  7  1  0
  2  3  1  0
  3  4  1  0
  4  8  2  0
  4  6  1  0
  6 10  1  0
  6  7  2  0
  8  9  1  0
  9 10  2  0
 10 22  1  0
 11 12  2  0
 11 15  1  0
 12 13  1  0
 13 16  1  0
 13 14  1  0
 14 15  2  0
 15 23  1  0
 16 18  1  0
 16 17  2  0
 17 21  1  0
 18 19  2  0
 19 20  1  0
 20 21  2  0
  2 24  1  0
  3 25  1  0
  7 26  1  0
  9 27  1  0
 14 28  1  0
 17 29  1  0
 18 30  1  0
 19 31  1  0
 21 32  1  0
 22 33  1  1
 22 34  1  0
 22 35  1  0
 23 36  1  1
 23 37  1  0
 23 38  1  0
M  END
>  <Pose ID>  (239)
430

>  <Score>  (239)
-6.190169334411621

>  <smiles>  (239)
Cc1cnc2[nH]cc(Oc3nn(-c4ccncc4)cc3C)cc1-2

$$$$

     RDKit          3D

 30 32  0  0  0  0  0  0  0  0999 V2000
   27.2820    7.9040  -10.1900 C   0  0  0  0  0  0  0  0  0  0  0  0
   28.3790    7.1470  -10.5700 C   0  0  0  0  0  0  0  0  0  0  0  0
   29.3610    7.7050  -11.3780 N   0  0  0  0  0  0  0  0  0  0  0  0
   26.4810    7.1590   -9.4100 N   0  0  0  0  0  0  0  0  0  0  0  0
   29.2460    9.0240  -11.8040 C   0  0  0  0  0  0  0  0  0  0  0  0
   28.1470    9.7810  -11.4210 C   0  0  0  0  0  0  0  0  0  0  0  0
   27.1640    9.2240  -10.6140 C   0  0  0  0  0  0  0  0  0  0  0  0
   30.0530    9.7730  -12.5740 N   0  0  0  0  0  0  0  0  0  0  0  0
   29.4970   11.0250  -12.7090 C   0  0  0  0  0  0  0  0  0  0  0  0
   28.3190   10.8660  -11.9480 C   0  0  0  0  0  0  0  0  0  0  0  0
   25.9120    7.6390   -8.1920 C   0  0  0  0  0  0  0  0  0  0  0  0
   25.2710    6.7290   -7.3590 N   0  0  0  0  0  0  0  0  0  0  0  0
   24.6030    7.1750   -6.2240 C   0  0  0  0  0  0  0  0  0  0  0  0
   24.5760    8.5320   -5.9230 C   0  0  0  0  0  0  0  0  0  0  0  0
   25.2170    9.4420   -6.7560 C   0  0  0  0  0  0  0  0  0  0  0  0
   25.9090    8.9890   -7.8750 C   0  0  0  0  0  0  0  0  0  0  0  0
   24.0300    6.3600   -5.4800 O   0  0  0  0  0  0  0  0  0  0  0  0
   25.1620   10.9190   -6.4480 C   0  0  1  0  0  0  0  0  0  0  0  0
   28.4718    6.1044  -10.2317 H   0  0  0  0  0  0  0  0  0  0  0  0
   30.1751    7.1416  -11.6620 H   0  0  0  0  0  0  0  0  0  0  0  0
   26.2673    6.1955   -9.7049 H   0  0  0  0  0  0  0  0  0  0  0  0
   26.2940    9.8248  -10.3106 H   0  0  0  0  0  0  0  0  0  0  0  0
   29.8674   11.9040  -13.2570 H   0  0  0  0  0  0  0  0  0  0  0  0
   27.5908   11.6828  -11.8360 H   0  0  0  0  0  0  0  0  0  0  0  0
   25.2910    5.7238   -7.5828 H   0  0  0  0  0  0  0  0  0  0  0  0
   24.0474    8.8858   -5.0256 H   0  0  0  0  0  0  0  0  0  0  0  0
   26.4547    9.7031   -8.5093 H   0  0  0  0  0  0  0  0  0  0  0  0
   25.1565   11.0663   -5.3579 H   0  0  0  0  0  0  0  0  0  0  0  0
   26.0422   11.4168   -6.8808 H   0  0  0  0  0  0  0  0  0  0  0  0
   24.2472   11.3500   -6.8808 H   0  0  0  0  0  0  0  0  0  0  0  0
  4  1  1  0
  4 11  1  0
  1  7  1  0
  1  2  2  0
  2  3  1  0
  3  5  1  0
  5  8  2  0
  5  6  1  0
  6 10  1  0
  6  7  2  0
  8  9  1  0
  9 10  2  0
 11 16  2  0
 11 12  1  0
 12 13  1  0
 13 14  1  0
 13 17  2  0
 14 15  2  0
 15 16  1  0
 15 18  1  0
  2 19  1  0
  3 20  1  0
  4 21  1  0
  7 22  1  0
  9 23  1  0
 10 24  1  0
 12 25  1  0
 14 26  1  0
 16 27  1  0
 18 28  1  1
 18 29  1  0
 18 30  1  0
M  END
>  <Pose ID>  (240)
91

>  <Score>  (240)
-6.186485290527344

>  <smiles>  (240)
Cc1cc(Nc2c[nH]c3nccc-3c2)[nH]c(=O)c1

$$$$

     RDKit          3D

 36 39  0  0  0  0  0  0  0  0999 V2000
   27.3700    7.9670  -10.1580 C   0  0  0  0  0  0  0  0  0  0  0  0
   28.4720    7.1920  -10.4850 C   0  0  0  0  0  0  0  0  0  0  0  0
   29.4560    7.7040  -11.3230 N   0  0  0  0  0  0  0  0  0  0  0  0
   26.5690    7.2690   -9.3350 N   0  0  0  0  0  0  0  0  0  0  0  0
   29.3360    8.9910  -11.8310 C   0  0  0  0  0  0  0  0  0  0  0  0
   28.2310    9.7660  -11.5030 C   0  0  0  0  0  0  0  0  0  0  0  0
   27.2480    9.2580  -10.6660 C   0  0  0  0  0  0  0  0  0  0  0  0
   30.1440    9.6930  -12.6450 N   0  0  0  0  0  0  0  0  0  0  0  0
   29.5830   10.9320  -12.8620 C   0  0  0  0  0  0  0  0  0  0  0  0
   28.4030   10.8160  -12.0980 C   0  0  0  0  0  0  0  0  0  0  0  0
   25.9930    7.8240   -8.1530 C   0  0  0  0  0  0  0  0  0  0  0  0
   25.3530    6.9670   -7.2660 N   0  0  0  0  0  0  0  0  0  0  0  0
   24.6780    7.4810   -6.1650 C   0  0  0  0  0  0  0  0  0  0  0  0
   24.6440    8.8540   -5.9520 C   0  0  0  0  0  0  0  0  0  0  0  0
   25.2840    9.7130   -6.8380 C   0  0  0  0  0  0  0  0  0  0  0  0
   25.9840    9.1930   -7.9230 C   0  0  0  0  0  0  0  0  0  0  0  0
   23.9680    6.8400   -5.1460 C   0  0  0  0  0  0  0  0  0  0  0  0
   23.6360    7.8310   -4.2470 N   0  0  0  0  0  0  0  0  0  0  0  0
   24.0260    9.0120   -4.6020 C   0  0  0  0  0  0  0  0  0  0  0  0
   25.2190   11.2060   -6.6260 C   0  0  1  0  0  0  0  0  0  0  0  0
   26.5620   11.6300   -6.0820 C   0  0  1  0  0  0  0  0  0  0  0  0
   28.5677    6.1730  -10.0818 H   0  0  0  0  0  0  0  0  0  0  0  0
   30.2746    7.1285  -11.5673 H   0  0  0  0  0  0  0  0  0  0  0  0
   26.3611    6.2875   -9.5682 H   0  0  0  0  0  0  0  0  0  0  0  0
   26.3746    9.8733  -10.4043 H   0  0  0  0  0  0  0  0  0  0  0  0
   29.9520   11.7761  -13.4631 H   0  0  0  0  0  0  0  0  0  0  0  0
   27.6714   11.6355  -12.0417 H   0  0  0  0  0  0  0  0  0  0  0  0
   25.3788    5.9496   -7.4246 H   0  0  0  0  0  0  0  0  0  0  0  0
   26.5305    9.8674   -8.5987 H   0  0  0  0  0  0  0  0  0  0  0  0
   23.7251    5.7694   -5.0760 H   0  0  0  0  0  0  0  0  0  0  0  0
   23.9233    9.9436   -4.0263 H   0  0  0  0  0  0  0  0  0  0  0  0
   25.0194   11.7153   -7.5803 H   0  0  0  0  0  0  0  0  0  0  0  0
   24.4103   11.4701   -5.9287 H   0  0  0  0  0  0  0  0  0  0  0  0
   26.5318   11.6205   -4.9825 H   0  0  0  0  0  0  0  0  0  0  0  0
   27.3367   10.9328   -6.4336 H   0  0  0  0  0  0  0  0  0  0  0  0
   26.7959   12.6457   -6.4336 H   0  0  0  0  0  0  0  0  0  0  0  0
  4  1  1  0
  4 11  1  0
  1  7  1  0
  1  2  2  0
  2  3  1  0
  3  5  1  0
  5  8  2  0
  5  6  1  0
  6 10  1  0
  6  7  2  0
  8  9  1  0
  9 10  2  0
 11 16  2  0
 11 12  1  0
 12 13  1  0
 13 14  1  0
 13 17  2  0
 14 15  2  0
 14 19  1  0
 15 16  1  0
 15 20  1  0
 17 18  1  0
 18 19  2  0
 20 21  1  0
  2 22  1  0
  3 23  1  0
  4 24  1  0
  7 25  1  0
  9 26  1  0
 10 27  1  0
 12 28  1  0
 16 29  1  0
 17 30  1  0
 19 31  1  0
 20 32  1  6
 20 33  1  0
 21 34  1  1
 21 35  1  0
 21 36  1  0
M  END
>  <Pose ID>  (241)
81

>  <Score>  (241)
-6.184817790985107

>  <smiles>  (241)
CCc1cc(Nc2c[nH]c3nccc-3c2)[nH]c2cncc1-2

$$$$

     RDKit          3D

 40 43  0  0  0  0  0  0  0  0999 V2000
   27.3830    7.9470  -10.1750 C   0  0  0  0  0  0  0  0  0  0  0  0
   28.4950    7.1830  -10.4910 C   0  0  0  0  0  0  0  0  0  0  0  0
   29.4820    7.7050  -11.3200 N   0  0  0  0  0  0  0  0  0  0  0  0
   26.5810    7.2420   -9.3600 N   0  0  0  0  0  0  0  0  0  0  0  0
   29.3540    8.9900  -11.8300 C   0  0  0  0  0  0  0  0  0  0  0  0
   28.2380    9.7530  -11.5140 C   0  0  0  0  0  0  0  0  0  0  0  0
   27.2530    9.2360  -10.6860 C   0  0  0  0  0  0  0  0  0  0  0  0
   30.1620    9.6990  -12.6370 N   0  0  0  0  0  0  0  0  0  0  0  0
   29.5920   10.9310  -12.8610 C   0  0  0  0  0  0  0  0  0  0  0  0
   28.4050   10.8040  -12.1070 C   0  0  0  0  0  0  0  0  0  0  0  0
   25.9880    7.7910   -8.1840 C   0  0  0  0  0  0  0  0  0  0  0  0
   25.3460    6.9290   -7.3030 N   0  0  0  0  0  0  0  0  0  0  0  0
   24.6560    7.4370   -6.2090 C   0  0  0  0  0  0  0  0  0  0  0  0
   24.6050    8.8090   -5.9980 C   0  0  0  0  0  0  0  0  0  0  0  0
   25.2440    9.6740   -6.8780 C   0  0  0  0  0  0  0  0  0  0  0  0
   25.9610    9.1600   -7.9560 C   0  0  0  0  0  0  0  0  0  0  0  0
   23.9430    6.7890   -5.1960 C   0  0  0  0  0  0  0  0  0  0  0  0
   23.5910    7.7770   -4.3020 N   0  0  0  0  0  0  0  0  0  0  0  0
   23.9720    8.9620   -4.6540 C   0  0  0  0  0  0  0  0  0  0  0  0
   25.1630   11.1660   -6.6680 C   0  0  1  0  0  0  0  0  0  0  0  0
   23.9160   10.2180   -4.0890 O   0  0  0  0  0  0  0  0  0  0  0  0
   22.5710   10.6510   -4.1040 C   0  0  1  0  0  0  0  0  0  0  0  0
   26.4960   11.6050   -6.1120 C   0  0  1  0  0  0  0  0  0  0  0  0
   28.5969    6.1651  -10.0867 H   0  0  0  0  0  0  0  0  0  0  0  0
   30.3088    7.1378  -11.5559 H   0  0  0  0  0  0  0  0  0  0  0  0
   26.3848    6.2586   -9.5951 H   0  0  0  0  0  0  0  0  0  0  0  0
   26.3709    9.8427  -10.4334 H   0  0  0  0  0  0  0  0  0  0  0  0
   29.9584   11.7778  -13.4598 H   0  0  0  0  0  0  0  0  0  0  0  0
   27.6652   11.6165  -12.0573 H   0  0  0  0  0  0  0  0  0  0  0  0
   25.3817    5.9118   -7.4612 H   0  0  0  0  0  0  0  0  0  0  0  0
   26.5064    9.8397   -8.6273 H   0  0  0  0  0  0  0  0  0  0  0  0
   23.7115    5.7158   -5.1270 H   0  0  0  0  0  0  0  0  0  0  0  0
   24.9672   11.6723   -7.6247 H   0  0  0  0  0  0  0  0  0  0  0  0
   24.3456   11.4221   -5.9779 H   0  0  0  0  0  0  0  0  0  0  0  0
   22.2115   10.7667   -3.0709 H   0  0  0  0  0  0  0  0  0  0  0  0
   22.5025   11.6166   -4.6264 H   0  0  0  0  0  0  0  0  0  0  0  0
   21.9520    9.9067   -4.6264 H   0  0  0  0  0  0  0  0  0  0  0  0
   26.4570   11.5921   -5.0128 H   0  0  0  0  0  0  0  0  0  0  0  0
   27.2821   10.9183   -6.4590 H   0  0  0  0  0  0  0  0  0  0  0  0
   26.7202   12.6244   -6.4590 H   0  0  0  0  0  0  0  0  0  0  0  0
 11  4  1  0
 11 16  2  0
 11 12  1  0
 12 13  1  0
 13 14  1  0
 13 17  2  0
 14 15  2  0
 14 19  1  0
 15 16  1  0
 15 20  1  0
 17 18  1  0
 18 19  2  0
 19 21  1  0
  4  1  1  0
  1  7  1  0
  1  2  2  0
  2  3  1  0
  3  5  1  0
  5  8  2  0
  5  6  1  0
  6 10  1  0
  6  7  2  0
  8  9  1  0
  9 10  2  0
 20 23  1  0
 21 22  1  0
  2 24  1  0
  3 25  1  0
  4 26  1  0
  7 27  1  0
  9 28  1  0
 10 29  1  0
 12 30  1  0
 16 31  1  0
 17 32  1  0
 20 33  1  6
 20 34  1  0
 22 35  1  1
 22 36  1  0
 22 37  1  0
 23 38  1  1
 23 39  1  0
 23 40  1  0
M  END
>  <Pose ID>  (242)
86

>  <Score>  (242)
-6.1800079345703125

>  <smiles>  (242)
CCc1cc(Nc2c[nH]c3nccc-3c2)[nH]c2cnc(OC)c1-2

$$$$

     RDKit          3D

 38 41  0  0  0  0  0  0  0  0999 V2000
   27.0650    8.4630  -10.1150 C   0  0  0  0  0  0  0  0  0  0  0  0
   27.7470    7.3930  -10.6770 C   0  0  0  0  0  0  0  0  0  0  0  0
   28.8110    7.6220  -11.5410 N   0  0  0  0  0  0  0  0  0  0  0  0
   29.1910    8.9240  -11.8450 C   0  0  0  0  0  0  0  0  0  0  0  0
   25.9800    8.0520   -9.2270 O   0  0  0  0  0  0  0  0  0  0  0  0
   28.5060    9.9960  -11.2840 C   0  0  0  0  0  0  0  0  0  0  0  0
   27.4430    9.7640  -10.4190 C   0  0  0  0  0  0  0  0  0  0  0  0
   30.1710    9.3970  -12.6390 N   0  0  0  0  0  0  0  0  0  0  0  0
   30.1380   10.7720  -12.6160 C   0  0  0  0  0  0  0  0  0  0  0  0
   29.0520   10.9840  -11.7390 C   0  0  0  0  0  0  0  0  0  0  0  0
   25.3390    8.9080   -8.3240 C   0  0  0  0  0  0  0  0  0  0  0  0
   24.9650   10.1580   -8.7940 N   0  0  0  0  0  0  0  0  0  0  0  0
   24.3830   10.8500   -7.7490 N   0  0  0  0  0  0  0  0  0  0  0  0
   24.3810   10.0590   -6.6660 C   0  0  0  0  0  0  0  0  0  0  0  0
   24.9340    8.8880   -7.0000 C   0  0  0  0  0  0  0  0  0  0  0  0
   23.9050   12.0220   -7.7870 C   0  0  0  0  0  0  0  0  0  0  0  0
   23.3070   12.4450   -6.6050 N   0  0  0  0  0  0  0  0  0  0  0  0
   24.1460   12.9300   -8.8090 C   0  0  0  0  0  0  0  0  0  0  0  0
   23.7900   14.2640   -8.6500 C   0  0  0  0  0  0  0  0  0  0  0  0
   23.1930   14.6880   -7.4700 C   0  0  0  0  0  0  0  0  0  0  0  0
   22.9950   13.8110   -6.4530 C   0  0  0  0  0  0  0  0  0  0  0  0
   25.0950    7.7120   -6.0680 C   0  0  1  0  0  0  0  0  0  0  0  0
   24.0530   15.2520   -9.7600 C   0  0  1  0  0  0  0  0  0  0  0  0
   27.4450    6.3625  -10.4383 H   0  0  0  0  0  0  0  0  0  0  0  0
   29.3179    6.8272  -11.9560 H   0  0  0  0  0  0  0  0  0  0  0  0
   26.9008   10.6118   -9.9749 H   0  0  0  0  0  0  0  0  0  0  0  0
   30.7777   11.5011  -13.1348 H   0  0  0  0  0  0  0  0  0  0  0  0
   28.7141   11.9979  -11.4783 H   0  0  0  0  0  0  0  0  0  0  0  0
   23.9912   10.3274   -5.6730 H   0  0  0  0  0  0  0  0  0  0  0  0
   24.6183   12.5940   -9.7439 H   0  0  0  0  0  0  0  0  0  0  0  0
   22.8799   15.7367   -7.3592 H   0  0  0  0  0  0  0  0  0  0  0  0
   22.5856   14.1712   -5.4977 H   0  0  0  0  0  0  0  0  0  0  0  0
   25.0472    8.0608   -5.0259 H   0  0  0  0  0  0  0  0  0  0  0  0
   24.2877    6.9872   -6.2494 H   0  0  0  0  0  0  0  0  0  0  0  0
   26.0674    7.2308   -6.2494 H   0  0  0  0  0  0  0  0  0  0  0  0
   24.3131   16.2292   -9.3271 H   0  0  0  0  0  0  0  0  0  0  0  0
   24.8867   14.8924  -10.3810 H   0  0  0  0  0  0  0  0  0  0  0  0
   23.1509   15.3545  -10.3810 H   0  0  0  0  0  0  0  0  0  0  0  0
 11  5  1  0
 11 12  2  0
 11 15  1  0
 12 13  1  0
 13 16  1  0
 13 14  1  0
 14 15  2  0
 15 22  1  0
 16 18  1  0
 16 17  2  0
 17 21  1  0
 18 19  2  0
 19 23  1  0
 19 20  1  0
 20 21  2  0
  5  1  1  0
  1  2  2  0
  1  7  1  0
  2  3  1  0
  3  4  1  0
  4  8  2  0
  4  6  1  0
  6 10  1  0
  6  7  2  0
  8  9  1  0
  9 10  2  0
  2 24  1  0
  3 25  1  0
  7 26  1  0
  9 27  1  0
 10 28  1  0
 14 29  1  0
 18 30  1  0
 20 31  1  0
 21 32  1  0
 22 33  1  1
 22 34  1  0
 22 35  1  0
 23 36  1  1
 23 37  1  0
 23 38  1  0
M  END
>  <Pose ID>  (243)
322

>  <Score>  (243)
-6.179007530212402

>  <smiles>  (243)
Cc1ccnc(-n2cc(C)c(Oc3c[nH]c4nccc-4c3)n2)c1

$$$$

     RDKit          3D

 40 43  0  0  0  0  0  0  0  0999 V2000
   27.9210    7.8700  -10.2890 C   0  0  0  0  0  0  0  0  0  0  0  0
   28.9090    7.1400  -10.9380 C   0  0  0  0  0  0  0  0  0  0  0  0
   29.7750    7.7740  -11.8170 N   0  0  0  0  0  0  0  0  0  0  0  0
   29.6560    9.1390  -12.0490 C   0  0  0  0  0  0  0  0  0  0  0  0
   27.0970    7.0620   -9.3930 O   0  0  0  0  0  0  0  0  0  0  0  0
   28.6650    9.8710  -11.4000 C   0  0  0  0  0  0  0  0  0  0  0  0
   27.7990    9.2350  -10.5190 C   0  0  0  0  0  0  0  0  0  0  0  0
   30.3640    9.9660  -12.8440 N   0  0  0  0  0  0  0  0  0  0  0  0
   29.8490   11.2390  -12.7290 C   0  0  0  0  0  0  0  0  0  0  0  0
   28.8040   11.0090  -11.8080 C   0  0  0  0  0  0  0  0  0  0  0  0
   26.2460    7.5880   -8.4180 C   0  0  0  0  0  0  0  0  0  0  0  0
   25.4310    8.6430   -8.7950 N   0  0  0  0  0  0  0  0  0  0  0  0
   24.6980    9.0330   -7.6890 N   0  0  0  0  0  0  0  0  0  0  0  0
   25.0290    8.2410   -6.6610 C   0  0  0  0  0  0  0  0  0  0  0  0
   25.9440    7.3630   -7.0840 C   0  0  0  0  0  0  0  0  0  0  0  0
   23.7550   10.1200   -7.7740 C   0  0  1  0  0  0  0  0  0  0  0  0
   30.2800   12.5200  -13.4000 C   0  0  1  0  0  0  0  0  0  0  0  0
   24.4090    8.4780   -5.4650 N   0  0  0  0  0  0  0  0  0  0  0  0
   23.3350    7.6490   -4.8960 C   0  0  1  0  0  0  0  0  0  0  0  0
   24.2910    9.6410   -4.8470 C   0  0  0  0  0  0  0  0  0  0  0  0
   23.4270   10.0890   -3.8780 C   0  0  1  0  0  0  0  0  0  0  0  0
   22.3680    8.8540   -4.0540 C   0  0  1  0  0  0  0  0  0  0  0  0
   25.2790   10.5130   -5.2900 O   0  0  0  0  0  0  0  0  0  0  0  0
   29.0046    6.0596  -10.7549 H   0  0  0  0  0  0  0  0  0  0  0  0
   30.5071    7.2324  -12.2983 H   0  0  0  0  0  0  0  0  0  0  0  0
   27.0170    9.8119  -10.0037 H   0  0  0  0  0  0  0  0  0  0  0  0
   28.1441   11.8231  -11.4737 H   0  0  0  0  0  0  0  0  0  0  0  0
   26.3931    6.5745   -6.4622 H   0  0  0  0  0  0  0  0  0  0  0  0
   23.4751   10.4427   -6.7603 H   0  0  0  0  0  0  0  0  0  0  0  0
   24.2136   10.9619   -8.3133 H   0  0  0  0  0  0  0  0  0  0  0  0
   22.8567    9.7848   -8.3133 H   0  0  0  0  0  0  0  0  0  0  0  0
   30.5318   13.2684  -12.6341 H   0  0  0  0  0  0  0  0  0  0  0  0
   31.1625   12.3263  -14.0275 H   0  0  0  0  0  0  0  0  0  0  0  0
   29.4599   12.8991  -14.0275 H   0  0  0  0  0  0  0  0  0  0  0  0
   22.7544    7.1475   -5.6843 H   0  0  0  0  0  0  0  0  0  0  0  0
   23.6931    6.8323   -4.2520 H   0  0  0  0  0  0  0  0  0  0  0  0
   23.8839   10.1239   -2.8780 H   0  0  0  0  0  0  0  0  0  0  0  0
   23.0389   11.1140   -3.9718 H   0  0  0  0  0  0  0  0  0  0  0  0
   21.4981    9.1576   -4.6549 H   0  0  0  0  0  0  0  0  0  0  0  0
   21.9472    8.4954   -3.1031 H   0  0  0  0  0  0  0  0  0  0  0  0
  5  1  1  0
  5 11  1  0
  1  2  2  0
  1  7  1  0
  2  3  1  0
  3  4  1  0
  4  8  2  0
  4  6  1  0
  6 10  1  0
  6  7  2  0
  8  9  1  0
  9 17  1  0
  9 10  2  0
 11 12  2  0
 11 15  1  0
 12 13  1  0
 13 16  1  0
 13 14  1  0
 14 15  2  0
 14 18  1  0
 18 19  1  0
 18 20  1  0
 19 22  1  0
 20 23  2  0
 20 21  1  0
 21 22  1  0
  2 24  1  0
  3 25  1  0
  7 26  1  0
 10 27  1  0
 15 28  1  0
 16 29  1  1
 16 30  1  0
 16 31  1  0
 17 32  1  1
 17 33  1  0
 17 34  1  0
 19 35  1  6
 19 36  1  0
 21 37  1  1
 21 38  1  0
 22 39  1  6
 22 40  1  0
M  END
>  <Pose ID>  (244)
489

>  <Score>  (244)
-6.175220012664795

>  <smiles>  (244)
Cc1cc2cc(Oc3cc(N4CCCC4=O)n(C)n3)c[nH]c-2n1

$$$$

     RDKit          3D

 38 41  0  0  0  0  0  0  0  0999 V2000
   27.8390    7.9450  -10.3540 C   0  0  0  0  0  0  0  0  0  0  0  0
   28.6400    7.1010  -11.1080 C   0  0  0  0  0  0  0  0  0  0  0  0
   29.5580    7.6320  -12.0080 N   0  0  0  0  0  0  0  0  0  0  0  0
   29.6760    9.0090  -12.1500 C   0  0  0  0  0  0  0  0  0  0  0  0
   26.9350    7.2350   -9.4550 O   0  0  0  0  0  0  0  0  0  0  0  0
   28.8710    9.8560  -11.3940 C   0  0  0  0  0  0  0  0  0  0  0  0
   27.9540    9.3230  -10.4980 C   0  0  0  0  0  0  0  0  0  0  0  0
   30.4750    9.7510  -12.9390 N   0  0  0  0  0  0  0  0  0  0  0  0
   30.2060   11.0840  -12.7180 C   0  0  0  0  0  0  0  0  0  0  0  0
   29.1890   10.9790  -11.7430 C   0  0  0  0  0  0  0  0  0  0  0  0
   26.2460    7.8360   -8.3950 C   0  0  0  0  0  0  0  0  0  0  0  0
   25.6150    9.0420   -8.6550 N   0  0  0  0  0  0  0  0  0  0  0  0
   25.0260    9.4770   -7.4820 N   0  0  0  0  0  0  0  0  0  0  0  0
   25.2670    8.5690   -6.5260 C   0  0  0  0  0  0  0  0  0  0  0  0
   25.9810    7.5740   -7.0610 C   0  0  0  0  0  0  0  0  0  0  0  0
   24.3230   10.6370   -7.3650 C   0  0  0  0  0  0  0  0  0  0  0  0
   23.7660   10.9110   -6.1210 C   0  0  0  0  0  0  0  0  0  0  0  0
   24.3410   11.6170   -8.3490 C   0  0  0  0  0  0  0  0  0  0  0  0
   23.8010   12.8710   -8.0900 C   0  0  0  0  0  0  0  0  0  0  0  0
   23.2440   13.1460   -6.8470 C   0  0  0  0  0  0  0  0  0  0  0  0
   23.2260   12.1650   -5.8620 N   0  0  0  0  0  0  0  0  0  0  0  0
   22.6600   14.5080   -6.5670 C   0  0  1  0  0  0  0  0  0  0  0  0
   21.9590   14.5820   -5.1990 C   0  0  1  0  0  0  0  0  0  0  0  0
   28.5494    6.0106  -10.9943 H   0  0  0  0  0  0  0  0  0  0  0  0
   30.1506    7.0040  -12.5695 H   0  0  0  0  0  0  0  0  0  0  0  0
   27.3172    9.9923   -9.9009 H   0  0  0  0  0  0  0  0  0  0  0  0
   30.6564   11.9786  -13.1728 H   0  0  0  0  0  0  0  0  0  0  0  0
   28.7060   11.8712  -11.3181 H   0  0  0  0  0  0  0  0  0  0  0  0
   24.9339    8.6320   -5.4795 H   0  0  0  0  0  0  0  0  0  0  0  0
   26.3111    6.6753   -6.5193 H   0  0  0  0  0  0  0  0  0  0  0  0
   23.7527   10.1350   -5.3415 H   0  0  0  0  0  0  0  0  0  0  0  0
   24.7825   11.4006   -9.3330 H   0  0  0  0  0  0  0  0  0  0  0  0
   23.8145   13.6467   -8.8698 H   0  0  0  0  0  0  0  0  0  0  0  0
   23.4716   15.2502   -6.5875 H   0  0  0  0  0  0  0  0  0  0  0  0
   21.9042   14.7115   -7.3399 H   0  0  0  0  0  0  0  0  0  0  0  0
   22.7088   14.5028   -4.3980 H   0  0  0  0  0  0  0  0  0  0  0  0
   21.4279   15.5412   -5.1106 H   0  0  0  0  0  0  0  0  0  0  0  0
   21.2393   13.7548   -5.1106 H   0  0  0  0  0  0  0  0  0  0  0  0
 11  5  1  0
 11 12  2  0
 11 15  1  0
 12 13  1  0
 13 16  1  0
 13 14  1  0
 14 15  2  0
 16 18  1  0
 16 17  2  0
 17 21  1  0
 18 19  2  0
 19 20  1  0
 20 22  1  0
 20 21  2  0
 22 23  1  0
  5  1  1  0
  1  2  2  0
  1  7  1  0
  2  3  1  0
  3  4  1  0
  4  8  2  0
  4  6  1  0
  6 10  1  0
  6  7  2  0
  8  9  1  0
  9 10  2  0
  2 24  1  0
  3 25  1  0
  7 26  1  0
  9 27  1  0
 10 28  1  0
 14 29  1  0
 15 30  1  0
 17 31  1  0
 18 32  1  0
 19 33  1  0
 22 34  1  1
 22 35  1  0
 23 36  1  1
 23 37  1  0
 23 38  1  0
M  END
>  <Pose ID>  (245)
410

>  <Score>  (245)
-6.169569969177246

>  <smiles>  (245)
CCc1ccc(-n2ccc(Oc3c[nH]c4nccc-4c3)n2)cn1

$$$$

     RDKit          3D

 36 38  0  0  0  0  0  0  0  0999 V2000
   28.8570    9.4740  -11.9860 C   0  0  0  0  0  0  0  0  0  0  0  0
   29.5020    8.2770  -11.7370 C   0  0  0  0  0  0  0  0  0  0  0  0
   28.9590    7.3760  -10.8290 N   0  0  0  0  0  0  0  0  0  0  0  0
   27.7850    7.6860  -10.1560 C   0  0  0  0  0  0  0  0  0  0  0  0
   27.6900    9.8020  -11.2980 C   0  0  0  0  0  0  0  0  0  0  0  0
   27.1500    8.8980  -10.3900 C   0  0  0  0  0  0  0  0  0  0  0  0
   27.0810    6.9860   -9.2440 N   0  0  0  0  0  0  0  0  0  0  0  0
   25.9830    7.7300   -8.8700 C   0  0  0  0  0  0  0  0  0  0  0  0
   26.1740    8.8850   -9.6590 C   0  0  0  0  0  0  0  0  0  0  0  0
   24.9160    7.5940   -8.0160 N   0  0  0  0  0  0  0  0  0  0  0  0
   24.7340    8.3470   -6.8480 C   0  0  0  0  0  0  0  0  0  0  0  0
   24.0700    9.5660   -6.9250 C   0  0  0  0  0  0  0  0  0  0  0  0
   23.8790   10.3270   -5.7780 C   0  0  0  0  0  0  0  0  0  0  0  0
   24.3550    9.8710   -4.5540 C   0  0  0  0  0  0  0  0  0  0  0  0
   25.0210    8.6520   -4.4780 N   0  0  0  0  0  0  0  0  0  0  0  0
   25.2090    7.8930   -5.6270 C   0  0  0  0  0  0  0  0  0  0  0  0
   23.2030   11.4750   -6.1070 N   0  0  0  0  0  0  0  0  0  0  0  0
   23.7870   12.7850   -5.9010 C   0  0  0  0  0  0  0  0  0  0  0  0
   24.9290   12.9150   -5.5830 O   0  0  0  0  0  0  0  0  0  0  0  0
   22.8740   13.8750   -6.3290 C   0  0  1  0  0  0  0  0  0  0  0  0
   22.0410   14.5330   -5.1750 C   0  0  1  0  0  0  0  0  0  0  0  0
   29.2670   10.1715  -12.7312 H   0  0  0  0  0  0  0  0  0  0  0  0
   30.4421    8.0384  -12.2560 H   0  0  0  0  0  0  0  0  0  0  0  0
   29.4287    6.4760  -10.6549 H   0  0  0  0  0  0  0  0  0  0  0  0
   27.1989   10.7707  -11.4724 H   0  0  0  0  0  0  0  0  0  0  0  0
   25.4752    9.7334   -9.6164 H   0  0  0  0  0  0  0  0  0  0  0  0
   24.2008    6.8907   -8.2499 H   0  0  0  0  0  0  0  0  0  0  0  0
   23.6958    9.9282   -7.8939 H   0  0  0  0  0  0  0  0  0  0  0  0
   24.2051   10.4737   -3.6461 H   0  0  0  0  0  0  0  0  0  0  0  0
   25.7361    6.9294   -5.5676 H   0  0  0  0  0  0  0  0  0  0  0  0
   22.2578   11.4038   -6.5100 H   0  0  0  0  0  0  0  0  0  0  0  0
   23.4798   14.6610   -6.8035 H   0  0  0  0  0  0  0  0  0  0  0  0
   22.1441   13.4146   -7.0111 H   0  0  0  0  0  0  0  0  0  0  0  0
   22.4452   14.2137   -4.2030 H   0  0  0  0  0  0  0  0  0  0  0  0
   22.1035   15.6282   -5.2562 H   0  0  0  0  0  0  0  0  0  0  0  0
   20.9900   14.2186   -5.2562 H   0  0  0  0  0  0  0  0  0  0  0  0
 10  8  1  0
 10 11  1  0
  1  2  2  0
  1  5  1  0
  2  3  1  0
  3  4  1  0
  4  6  1  0
  4  7  2  0
  5  6  2  0
  6  9  1  0
  7  8  1  0
  8  9  2  0
 11 12  2  0
 11 16  1  0
 12 13  1  0
 13 17  1  0
 13 14  2  0
 14 15  1  0
 15 16  2  0
 17 18  1  0
 18 20  1  0
 18 19  2  0
 20 21  1  0
  1 22  1  0
  2 23  1  0
  3 24  1  0
  5 25  1  0
  9 26  1  0
 10 27  1  0
 12 28  1  0
 14 29  1  0
 16 30  1  0
 17 31  1  0
 20 32  1  6
 20 33  1  0
 21 34  1  1
 21 35  1  0
 21 36  1  0
M  END
>  <Pose ID>  (246)
224

>  <Score>  (246)
-6.16864538192749

>  <smiles>  (246)
CCC(=O)Nc1cncc(Nc2cc3ccc[nH]c-3n2)c1

$$$$

     RDKit          3D

 35 38  0  0  0  0  0  0  0  0999 V2000
   26.8510    8.2680   -9.4830 C   0  0  0  0  0  0  0  0  0  0  0  0
   27.3530    7.0800   -9.9970 C   0  0  0  0  0  0  0  0  0  0  0  0
   28.3360    7.1070  -10.9800 N   0  0  0  0  0  0  0  0  0  0  0  0
   28.8190    8.3230  -11.4490 C   0  0  0  0  0  0  0  0  0  0  0  0
   25.8340    8.0680   -8.4560 O   0  0  0  0  0  0  0  0  0  0  0  0
   28.3120    9.5150  -10.9330 C   0  0  0  0  0  0  0  0  0  0  0  0
   27.3320    9.4850   -9.9500 C   0  0  0  0  0  0  0  0  0  0  0  0
   29.7520    8.6070  -12.3780 N   0  0  0  0  0  0  0  0  0  0  0  0
   29.8670    9.9740  -12.4880 C   0  0  0  0  0  0  0  0  0  0  0  0
   28.9100   10.3890  -11.5360 C   0  0  0  0  0  0  0  0  0  0  0  0
   25.3890    9.0690   -7.5850 C   0  0  0  0  0  0  0  0  0  0  0  0
   25.1000   10.3050   -8.1410 N   0  0  0  0  0  0  0  0  0  0  0  0
   24.7100   11.1510   -7.1190 N   0  0  0  0  0  0  0  0  0  0  0  0
   24.7420   10.4650   -5.9670 C   0  0  0  0  0  0  0  0  0  0  0  0
   25.1300    9.2150   -6.2340 C   0  0  0  0  0  0  0  0  0  0  0  0
   24.3540   12.4270   -7.2690 C   0  0  0  0  0  0  0  0  0  0  0  0
   24.3460   13.0630   -8.5040 C   0  0  0  0  0  0  0  0  0  0  0  0
   23.6920   12.9990   -6.1890 N   0  0  0  0  0  0  0  0  0  0  0  0
   23.6750   14.2700   -8.6610 C   0  0  0  0  0  0  0  0  0  0  0  0
   23.0200   14.2060   -6.3450 C   0  0  0  0  0  0  0  0  0  0  0  0
   22.9860   14.8400   -7.5900 C   0  0  0  0  0  0  0  0  0  0  0  0
   22.3250   14.8360   -5.1630 C   0  0  1  0  0  0  0  0  0  0  0  0
   26.9728    6.1167   -9.6263 H   0  0  0  0  0  0  0  0  0  0  0  0
   28.7067    6.2248  -11.3611 H   0  0  0  0  0  0  0  0  0  0  0  0
   26.9359   10.4259   -9.5404 H   0  0  0  0  0  0  0  0  0  0  0  0
   30.5214   10.5753  -13.1362 H   0  0  0  0  0  0  0  0  0  0  0  0
   28.7130   11.4546  -11.3470 H   0  0  0  0  0  0  0  0  0  0  0  0
   24.4916   10.8634   -4.9727 H   0  0  0  0  0  0  0  0  0  0  0  0
   25.2295    8.4150   -5.4856 H   0  0  0  0  0  0  0  0  0  0  0  0
   24.8711   12.6110   -9.3583 H   0  0  0  0  0  0  0  0  0  0  0  0
   23.6872   14.7792   -9.6360 H   0  0  0  0  0  0  0  0  0  0  0  0
   22.4236   15.7758   -7.7238 H   0  0  0  0  0  0  0  0  0  0  0  0
   22.7580   14.4435   -4.2311 H   0  0  0  0  0  0  0  0  0  0  0  0
   22.4584   15.9273   -5.1981 H   0  0  0  0  0  0  0  0  0  0  0  0
   21.2520   14.5964   -5.1981 H   0  0  0  0  0  0  0  0  0  0  0  0
 11  5  1  0
 11 12  2  0
 11 15  1  0
 12 13  1  0
 13 16  1  0
 13 14  1  0
 14 15  2  0
 16 17  2  0
 16 18  1  0
 17 19  1  0
 18 20  2  0
 19 21  2  0
 20 21  1  0
 20 22  1  0
  5  1  1  0
  1  2  2  0
  1  7  1  0
  2  3  1  0
  3  4  1  0
  4  8  2  0
  4  6  1  0
  6 10  1  0
  6  7  2  0
  8  9  1  0
  9 10  2  0
  2 23  1  0
  3 24  1  0
  7 25  1  0
  9 26  1  0
 10 27  1  0
 14 28  1  0
 15 29  1  0
 17 30  1  0
 19 31  1  0
 21 32  1  0
 22 33  1  1
 22 34  1  0
 22 35  1  0
M  END
>  <Pose ID>  (247)
444

>  <Score>  (247)
-6.16840124130249

>  <smiles>  (247)
Cc1cccc(-n2ccc(Oc3c[nH]c4nccc-4c3)n2)n1

$$$$

     RDKit          3D

 26 28  0  0  0  0  0  0  0  0999 V2000
   29.0830   10.1760  -11.8280 C   0  0  0  0  0  0  0  0  0  0  0  0
   28.3890    9.2990  -11.0460 N   0  0  0  0  0  0  0  0  0  0  0  0
   27.2260    9.5930  -10.3440 C   0  0  0  0  0  0  0  0  0  0  0  0
   28.5620   11.4600  -11.9520 C   0  0  0  0  0  0  0  0  0  0  0  0
   26.7500    8.5740   -9.6880 N   0  0  0  0  0  0  0  0  0  0  0  0
   27.2810   11.8440  -11.1980 C   0  0  0  0  0  0  0  0  0  0  0  0
   26.6740   10.8670  -10.4200 C   0  0  0  0  0  0  0  0  0  0  0  0
   29.2150   12.4030  -12.7350 C   0  0  0  0  0  0  0  0  0  0  0  0
   30.3910   12.0640  -13.3970 N   0  0  0  0  0  0  0  0  0  0  0  0
   30.9110   10.7830  -13.2750 C   0  0  0  0  0  0  0  0  0  0  0  0
   30.2440    9.8320  -12.5010 C   0  0  0  0  0  0  0  0  0  0  0  0
   25.6050    8.7110   -8.9510 C   0  0  0  0  0  0  0  0  0  0  0  0
   27.2850    7.2470   -9.6290 N   0  0  0  0  0  0  0  0  0  0  0  0
   25.3930    7.4670   -8.4280 C   0  0  0  0  0  0  0  0  0  0  0  0
   26.4450    6.6100   -8.8520 C   0  0  0  0  0  0  0  0  0  0  0  0
   26.7010   13.2340  -11.2990 C   0  0  1  0  0  0  0  0  0  0  0  0
   25.7549   11.1013   -9.8629 H   0  0  0  0  0  0  0  0  0  0  0  0
   28.8025   13.4181  -12.8319 H   0  0  0  0  0  0  0  0  0  0  0  0
   31.8474   10.5175  -13.7875 H   0  0  0  0  0  0  0  0  0  0  0  0
   30.6405    8.8087  -12.4254 H   0  0  0  0  0  0  0  0  0  0  0  0
   24.9950    9.6157   -8.8117 H   0  0  0  0  0  0  0  0  0  0  0  0
   24.5486    7.1767   -7.7856 H   0  0  0  0  0  0  0  0  0  0  0  0
   26.5408    5.5523   -8.5655 H   0  0  0  0  0  0  0  0  0  0  0  0
   26.5334   13.6357  -10.2888 H   0  0  0  0  0  0  0  0  0  0  0  0
   27.4024   13.8855  -11.8409 H   0  0  0  0  0  0  0  0  0  0  0  0
   25.7446   13.1938  -11.8409 H   0  0  0  0  0  0  0  0  0  0  0  0
  1 11  1  0
  1  4  1  0
  1  2  2  0
  2  3  1  0
  3  7  2  0
  3  5  1  0
  4  8  1  0
  4  6  2  0
  6 16  1  0
  6  7  1  0
  8  9  2  0
  9 10  1  0
 10 11  2  0
  5 13  1  0
  5 12  1  0
 12 14  2  0
 13 15  2  0
 14 15  1  0
  7 17  1  0
  8 18  1  0
 10 19  1  0
 11 20  1  0
 12 21  1  0
 14 22  1  0
 15 23  1  0
 16 24  1  1
 16 25  1  0
 16 26  1  0
M  END
>  <Pose ID>  (248)
92

>  <Score>  (248)
-6.166798114776611

>  <smiles>  (248)
Cc1cc(-n2cccn2)nc2ccncc12

$$$$

     RDKit          3D

 40 43  0  0  0  0  0  0  0  0999 V2000
   27.3650    7.9590  -10.1520 C   0  0  0  0  0  0  0  0  0  0  0  0
   28.4560    7.1770  -10.5010 C   0  0  0  0  0  0  0  0  0  0  0  0
   29.4530    7.7020  -11.3150 N   0  0  0  0  0  0  0  0  0  0  0  0
   26.5490    7.2460   -9.3590 N   0  0  0  0  0  0  0  0  0  0  0  0
   29.3560    9.0070  -11.7790 C   0  0  0  0  0  0  0  0  0  0  0  0
   28.2630    9.7890  -11.4280 C   0  0  0  0  0  0  0  0  0  0  0  0
   27.2680    9.2670  -10.6150 C   0  0  0  0  0  0  0  0  0  0  0  0
   30.1800    9.7240  -12.5640 N   0  0  0  0  0  0  0  0  0  0  0  0
   29.6420   10.9770  -12.7390 C   0  0  0  0  0  0  0  0  0  0  0  0
   28.4550   10.8550  -11.9860 C   0  0  0  0  0  0  0  0  0  0  0  0
   25.9750    7.7690   -8.1600 C   0  0  0  0  0  0  0  0  0  0  0  0
   25.3160    6.8920   -7.3070 N   0  0  0  0  0  0  0  0  0  0  0  0
   24.6440    7.3770   -6.1920 C   0  0  0  0  0  0  0  0  0  0  0  0
   24.6300    8.7420   -5.9310 C   0  0  0  0  0  0  0  0  0  0  0  0
   25.2900    9.6210   -6.7830 C   0  0  0  0  0  0  0  0  0  0  0  0
   25.9890    9.1270   -7.8820 C   0  0  0  0  0  0  0  0  0  0  0  0
   23.9180    6.7140   -5.1980 C   0  0  0  0  0  0  0  0  0  0  0  0
   23.5970    7.6780   -4.2680 N   0  0  0  0  0  0  0  0  0  0  0  0
   24.0080    8.8640   -4.5790 C   0  0  0  0  0  0  0  0  0  0  0  0
   23.9900   10.0980   -3.9700 O   0  0  0  0  0  0  0  0  0  0  0  0
   22.6580   10.5710   -3.9610 C   0  0  1  0  0  0  0  0  0  0  0  0
   30.1720   12.1540  -13.5210 C   0  0  1  0  0  0  0  0  0  0  0  0
   27.4690   11.9920  -11.8770 C   0  0  1  0  0  0  0  0  0  0  0  0
   28.5322    6.1428  -10.1342 H   0  0  0  0  0  0  0  0  0  0  0  0
   30.2642    7.1226  -11.5741 H   0  0  0  0  0  0  0  0  0  0  0  0
   26.3266    6.2769   -9.6278 H   0  0  0  0  0  0  0  0  0  0  0  0
   26.4029    9.8868  -10.3366 H   0  0  0  0  0  0  0  0  0  0  0  0
   25.3258    5.8806   -7.5017 H   0  0  0  0  0  0  0  0  0  0  0  0
   25.2601   10.7034   -6.5896 H   0  0  0  0  0  0  0  0  0  0  0  0
   26.5524    9.8149   -8.5296 H   0  0  0  0  0  0  0  0  0  0  0  0
   23.6576    5.6458   -5.1654 H   0  0  0  0  0  0  0  0  0  0  0  0
   22.3187   10.6915   -2.9216 H   0  0  0  0  0  0  0  0  0  0  0  0
   22.6099   11.5412   -4.4772 H   0  0  0  0  0  0  0  0  0  0  0  0
   22.0088    9.8484   -4.4772 H   0  0  0  0  0  0  0  0  0  0  0  0
   30.5214   12.9299  -12.8240 H   0  0  0  0  0  0  0  0  0  0  0  0
   31.0094   11.8262  -14.1545 H   0  0  0  0  0  0  0  0  0  0  0  0
   29.3715   12.5637  -14.1545 H   0  0  0  0  0  0  0  0  0  0  0  0
   27.2785   12.2117  -10.8161 H   0  0  0  0  0  0  0  0  0  0  0  0
   27.8834   12.8850  -12.3677 H   0  0  0  0  0  0  0  0  0  0  0  0
   26.5263   11.7082  -12.3677 H   0  0  0  0  0  0  0  0  0  0  0  0
  4  1  1  0
  4 11  1  0
  1  7  1  0
  1  2  2  0
  2  3  1  0
  3  5  1  0
  5  8  2  0
  5  6  1  0
  6 10  1  0
  6  7  2  0
  8  9  1  0
  9 22  1  0
  9 10  2  0
 10 23  1  0
 11 16  2  0
 11 12  1  0
 12 13  1  0
 13 14  1  0
 13 17  2  0
 14 15  2  0
 14 19  1  0
 15 16  1  0
 17 18  1  0
 18 19  2  0
 19 20  1  0
 20 21  1  0
  2 24  1  0
  3 25  1  0
  4 26  1  0
  7 27  1  0
 12 28  1  0
 15 29  1  0
 16 30  1  0
 17 31  1  0
 21 32  1  1
 21 33  1  0
 21 34  1  0
 22 35  1  1
 22 36  1  0
 22 37  1  0
 23 38  1  1
 23 39  1  0
 23 40  1  0
M  END
>  <Pose ID>  (249)
62

>  <Score>  (249)
-6.16247034072876

>  <smiles>  (249)
COc1ncc2[nH]c(Nc3c[nH]c4nc(C)c(C)c-4c3)ccc1-2

$$$$

     RDKit          3D

 37 40  0  0  0  0  0  0  0  0999 V2000
   27.4190    7.8650  -10.1610 C   0  0  0  0  0  0  0  0  0  0  0  0
   28.5990    7.1710  -10.3710 C   0  0  0  0  0  0  0  0  0  0  0  0
   29.5840    7.7050  -11.1910 N   0  0  0  0  0  0  0  0  0  0  0  0
   26.6330    7.1610   -9.3310 N   0  0  0  0  0  0  0  0  0  0  0  0
   29.3870    8.9380  -11.8010 C   0  0  0  0  0  0  0  0  0  0  0  0
   28.2040    9.6340  -11.5900 C   0  0  0  0  0  0  0  0  0  0  0  0
   27.2190    9.1020  -10.7700 C   0  0  0  0  0  0  0  0  0  0  0  0
   30.1800    9.6490  -12.6230 N   0  0  0  0  0  0  0  0  0  0  0  0
   29.5310   10.8140  -12.9610 C   0  0  0  0  0  0  0  0  0  0  0  0
   28.3210   10.6500  -12.2530 C   0  0  0  0  0  0  0  0  0  0  0  0
   25.9440    7.7460   -8.2250 C   0  0  0  0  0  0  0  0  0  0  0  0
   25.3270    6.9000   -7.3110 N   0  0  0  0  0  0  0  0  0  0  0  0
   24.5480    7.4290   -6.2890 C   0  0  0  0  0  0  0  0  0  0  0  0
   24.3860    8.8060   -6.1820 C   0  0  0  0  0  0  0  0  0  0  0  0
   25.0030    9.6530   -7.0950 C   0  0  0  0  0  0  0  0  0  0  0  0
   25.8080    9.1200   -8.1000 C   0  0  0  0  0  0  0  0  0  0  0  0
   23.8350    6.8020   -5.2610 C   0  0  0  0  0  0  0  0  0  0  0  0
   23.3700    7.8210   -4.4600 N   0  0  0  0  0  0  0  0  0  0  0  0
   23.6800    9.0030   -4.8810 C   0  0  0  0  0  0  0  0  0  0  0  0
   23.3880   10.3160   -4.1980 C   0  0  1  0  0  0  0  0  0  0  0  0
   23.1640   11.4290   -5.0640 O   0  0  0  0  0  0  0  0  0  0  0  0
   22.9070   12.6000   -4.3710 C   0  0  1  0  0  0  0  0  0  0  0  0
   28.7560    6.1955   -9.8875 H   0  0  0  0  0  0  0  0  0  0  0  0
   30.4606    7.1873  -11.3472 H   0  0  0  0  0  0  0  0  0  0  0  0
   26.5215    6.1511   -9.4998 H   0  0  0  0  0  0  0  0  0  0  0  0
   26.2833    9.6552  -10.6014 H   0  0  0  0  0  0  0  0  0  0  0  0
   29.8627   11.6426  -13.6040 H   0  0  0  0  0  0  0  0  0  0  0  0
   27.5211   11.4038  -12.2975 H   0  0  0  0  0  0  0  0  0  0  0  0
   25.4472    5.8802   -7.3912 H   0  0  0  0  0  0  0  0  0  0  0  0
   24.8564   10.7409   -7.0245 H   0  0  0  0  0  0  0  0  0  0  0  0
   26.3359    9.7900   -8.7946 H   0  0  0  0  0  0  0  0  0  0  0  0
   23.6788    5.7221   -5.1220 H   0  0  0  0  0  0  0  0  0  0  0  0
   22.4879   10.1824   -3.5799 H   0  0  0  0  0  0  0  0  0  0  0  0
   24.2926   10.5618   -3.6224 H   0  0  0  0  0  0  0  0  0  0  0  0
   22.9502   12.4031   -3.2896 H   0  0  0  0  0  0  0  0  0  0  0  0
   23.6606   13.3561   -4.6364 H   0  0  0  0  0  0  0  0  0  0  0  0
   21.9061   12.9710   -4.6364 H   0  0  0  0  0  0  0  0  0  0  0  0
 11  4  1  0
 11 16  2  0
 11 12  1  0
 12 13  1  0
 13 14  1  0
 13 17  2  0
 14 15  2  0
 14 19  1  0
 15 16  1  0
 17 18  1  0
 18 19  2  0
 19 20  1  0
  4  1  1  0
  1  7  1  0
  1  2  2  0
  2  3  1  0
  3  5  1  0
  5  8  2  0
  5  6  1  0
  6 10  1  0
  6  7  2  0
  8  9  1  0
  9 10  2  0
 20 21  1  0
 21 22  1  0
  2 23  1  0
  3 24  1  0
  4 25  1  0
  7 26  1  0
  9 27  1  0
 10 28  1  0
 12 29  1  0
 15 30  1  0
 16 31  1  0
 17 32  1  0
 20 33  1  1
 20 34  1  0
 22 35  1  1
 22 36  1  0
 22 37  1  0
M  END
>  <Pose ID>  (250)
73

>  <Score>  (250)
-6.158254146575928

>  <smiles>  (250)
COCc1ncc2[nH]c(Nc3c[nH]c4nccc-4c3)ccc1-2

$$$$

     RDKit          3D

 20 21  0  0  0  0  0  0  0  0999 V2000
   28.1490    9.7710  -11.3340 C   0  0  0  0  0  0  0  0  0  0  0  0
   28.8800    8.5920  -11.4110 C   0  0  0  0  0  0  0  0  0  0  0  0
   28.4610    7.4280  -10.7760 N   0  0  0  0  0  0  0  0  0  0  0  0
   26.9270    9.7420  -10.6490 C   0  0  0  0  0  0  0  0  0  0  0  0
   26.4920    8.5840  -10.0150 C   0  0  0  0  0  0  0  0  0  0  0  0
   27.2580    7.4260  -10.0790 C   0  0  0  0  0  0  0  0  0  0  0  0
   26.8670    6.3910   -9.5130 O   0  0  0  0  0  0  0  0  0  0  0  0
   30.0860    8.5660  -12.1030 N   0  0  0  0  0  0  0  0  0  0  0  0
   30.5590    9.7190  -12.7180 C   0  0  0  0  0  0  0  0  0  0  0  0
   29.8280   10.8980  -12.6420 C   0  0  0  0  0  0  0  0  0  0  0  0
   28.6180   10.9190  -11.9380 C   0  0  0  0  0  0  0  0  0  0  0  0
   30.3360   12.1500  -13.3150 C   0  0  1  0  0  0  0  0  0  0  0  0
   29.0366    6.5751  -10.8216 H   0  0  0  0  0  0  0  0  0  0  0  0
   26.3037   10.6476  -10.6125 H   0  0  0  0  0  0  0  0  0  0  0  0
   25.5409    8.5841   -9.4623 H   0  0  0  0  0  0  0  0  0  0  0  0
   31.5129    9.6981  -13.2654 H   0  0  0  0  0  0  0  0  0  0  0  0
   28.0404   11.8524  -11.8664 H   0  0  0  0  0  0  0  0  0  0  0  0
   30.6332   12.8826  -12.5502 H   0  0  0  0  0  0  0  0  0  0  0  0
   31.2047   11.9022  -13.9426 H   0  0  0  0  0  0  0  0  0  0  0  0
   29.5402   12.5776  -13.9426 H   0  0  0  0  0  0  0  0  0  0  0  0
  1 11  1  0
  1  2  2  0
  1  4  1  0
  2  8  1  0
  2  3  1  0
  3  6  1  0
  4  5  2  0
  5  6  1  0
  6  7  2  0
  8  9  2  0
  9 10  1  0
 10 12  1  0
 10 11  2  0
  3 13  1  0
  4 14  1  0
  5 15  1  0
  9 16  1  0
 11 17  1  0
 12 18  1  1
 12 19  1  0
 12 20  1  0
M  END
>  <Pose ID>  (251)
7

>  <Score>  (251)
-6.157712459564209

>  <smiles>  (251)
Cc1cnc2[nH]c(=O)ccc2c1

$$$$

     RDKit          3D

 37 40  0  0  0  0  0  0  0  0999 V2000
   27.9040    7.7870  -10.3650 C   0  0  0  0  0  0  0  0  0  0  0  0
   28.8980    7.0960  -11.0460 C   0  0  0  0  0  0  0  0  0  0  0  0
   29.7670    7.7800  -11.8870 N   0  0  0  0  0  0  0  0  0  0  0  0
   29.6450    9.1550  -12.0480 C   0  0  0  0  0  0  0  0  0  0  0  0
   27.0820    6.9280   -9.5180 O   0  0  0  0  0  0  0  0  0  0  0  0
   28.6480    9.8480  -11.3670 C   0  0  0  0  0  0  0  0  0  0  0  0
   27.7810    9.1620  -10.5240 C   0  0  0  0  0  0  0  0  0  0  0  0
   30.3520   10.0240  -12.7940 N   0  0  0  0  0  0  0  0  0  0  0  0
   29.8320   11.2870  -12.6170 C   0  0  0  0  0  0  0  0  0  0  0  0
   28.7840   11.0070  -11.7140 C   0  0  0  0  0  0  0  0  0  0  0  0
   26.2200    7.4020   -8.5200 C   0  0  0  0  0  0  0  0  0  0  0  0
   25.4050    8.4720   -8.8460 N   0  0  0  0  0  0  0  0  0  0  0  0
   24.6960    8.7790   -7.7530 N   0  0  0  0  0  0  0  0  0  0  0  0
   24.9900    7.9270   -6.6970 C   0  0  0  0  0  0  0  0  0  0  0  0
   25.9140    7.1050   -7.2050 C   0  0  0  0  0  0  0  0  0  0  0  0
   23.7460    9.7820   -7.5920 C   0  0  0  0  0  0  0  0  0  0  0  0
   23.0940    9.9320   -6.3750 N   0  0  0  0  0  0  0  0  0  0  0  0
   23.3890    9.0790   -5.3170 C   0  0  0  0  0  0  0  0  0  0  0  0
   24.3380    8.0760   -5.4780 C   0  0  0  0  0  0  0  0  0  0  0  0
   30.2620   12.6010  -13.2190 C   0  0  1  0  0  0  0  0  0  0  0  0
   24.6610    7.1510   -4.3310 C   0  0  1  0  0  0  0  0  0  0  0  0
   24.0130    7.7520   -3.0390 C   0  0  1  0  0  0  0  0  0  0  0  0
   28.9971    6.0078  -10.9195 H   0  0  0  0  0  0  0  0  0  0  0  0
   30.5034    7.2668  -12.3923 H   0  0  0  0  0  0  0  0  0  0  0  0
   26.9958    9.7090   -9.9816 H   0  0  0  0  0  0  0  0  0  0  0  0
   28.1199   11.8004  -11.3405 H   0  0  0  0  0  0  0  0  0  0  0  0
   26.3789    6.2839   -6.6396 H   0  0  0  0  0  0  0  0  0  0  0  0
   23.5111   10.4565   -8.4286 H   0  0  0  0  0  0  0  0  0  0  0  0
   22.8718    9.1979   -4.3535 H   0  0  0  0  0  0  0  0  0  0  0  0
   30.4953   13.3140  -12.4145 H   0  0  0  0  0  0  0  0  0  0  0  0
   31.1558   12.4444  -13.8408 H   0  0  0  0  0  0  0  0  0  0  0  0
   29.4486   13.0031  -13.8408 H   0  0  0  0  0  0  0  0  0  0  0  0
   24.2467    6.1512   -4.5278 H   0  0  0  0  0  0  0  0  0  0  0  0
   25.7499    7.0554   -4.2076 H   0  0  0  0  0  0  0  0  0  0  0  0
   24.4888    7.3107   -2.1508 H   0  0  0  0  0  0  0  0  0  0  0  0
   24.1582    8.8423   -3.0291 H   0  0  0  0  0  0  0  0  0  0  0  0
   22.9367    7.5253   -3.0291 H   0  0  0  0  0  0  0  0  0  0  0  0
  5  1  1  0
  5 11  1  0
  1  2  2  0
  1  7  1  0
  2  3  1  0
  3  4  1  0
  4  8  2  0
  4  6  1  0
  6 10  1  0
  6  7  2  0
  8  9  1  0
  9 20  1  0
  9 10  2  0
 11 12  2  0
 11 15  1  0
 12 13  1  0
 13 16  1  0
 13 14  1  0
 14 15  2  0
 14 19  1  0
 16 17  2  0
 17 18  1  0
 18 19  2  0
 19 21  1  0
 21 22  1  0
  2 23  1  0
  3 24  1  0
  7 25  1  0
 10 26  1  0
 15 27  1  0
 16 28  1  0
 18 29  1  0
 20 30  1  1
 20 31  1  0
 20 32  1  0
 21 33  1  6
 21 34  1  0
 22 35  1  1
 22 36  1  0
 22 37  1  0
M  END
>  <Pose ID>  (252)
284

>  <Score>  (252)
-6.152402400970459

>  <smiles>  (252)
CCc1cncn2nc(Oc3c[nH]c4nc(C)cc-4c3)cc12

$$$$

     RDKit          3D

 40 42  0  0  0  0  0  0  0  0999 V2000
   28.8460    9.6830  -11.9230 C   0  0  0  0  0  0  0  0  0  0  0  0
   29.5000    8.4730  -11.7860 C   0  0  0  0  0  0  0  0  0  0  0  0
   28.9690    7.4910  -10.9540 N   0  0  0  0  0  0  0  0  0  0  0  0
   27.8000    7.7360  -10.2480 C   0  0  0  0  0  0  0  0  0  0  0  0
   27.6830    9.9420  -11.2000 C   0  0  0  0  0  0  0  0  0  0  0  0
   27.1550    8.9580  -10.3710 C   0  0  0  0  0  0  0  0  0  0  0  0
   27.1090    6.9550   -9.3940 N   0  0  0  0  0  0  0  0  0  0  0  0
   26.0090    7.6570   -8.9470 C   0  0  0  0  0  0  0  0  0  0  0  0
   26.1880    8.8770   -9.6340 C   0  0  0  0  0  0  0  0  0  0  0  0
   24.9510    7.4410   -8.1000 N   0  0  0  0  0  0  0  0  0  0  0  0
   24.7750    8.0900   -6.8690 C   0  0  0  0  0  0  0  0  0  0  0  0
   24.1040    9.3050   -6.8330 C   0  0  0  0  0  0  0  0  0  0  0  0
   23.9200    9.9630   -5.6250 C   0  0  0  0  0  0  0  0  0  0  0  0
   24.4080    9.4060   -4.4480 C   0  0  0  0  0  0  0  0  0  0  0  0
   25.0830    8.1890   -4.4830 N   0  0  0  0  0  0  0  0  0  0  0  0
   25.2640    7.5320   -5.6940 C   0  0  0  0  0  0  0  0  0  0  0  0
   23.2340   11.1310   -5.8450 N   0  0  0  0  0  0  0  0  0  0  0  0
   23.8000   12.1310   -6.4750 C   0  0  0  0  0  0  0  0  0  0  0  0
   24.8730   12.1220   -7.0560 O   0  0  0  0  0  0  0  0  0  0  0  0
   22.9680   13.4130   -6.4060 C   0  0  1  0  0  0  0  0  0  0  0  0
   24.2260   10.0570   -3.2480 O   0  0  0  0  0  0  0  0  0  0  0  0
   23.2780    9.3460   -2.4630 C   0  0  1  0  0  0  0  0  0  0  0  0
   23.6800   14.2520   -5.3710 C   0  0  1  0  0  0  0  0  0  0  0  0
   29.2459   10.4462  -12.6068 H   0  0  0  0  0  0  0  0  0  0  0  0
   30.4364    8.2866  -12.3322 H   0  0  0  0  0  0  0  0  0  0  0  0
   29.4444    6.5819  -10.8625 H   0  0  0  0  0  0  0  0  0  0  0  0
   27.1854   10.9194  -11.2846 H   0  0  0  0  0  0  0  0  0  0  0  0
   25.4871    9.7157   -9.5098 H   0  0  0  0  0  0  0  0  0  0  0  0
   24.2378    6.7558   -8.3878 H   0  0  0  0  0  0  0  0  0  0  0  0
   23.7176    9.7467   -7.7634 H   0  0  0  0  0  0  0  0  0  0  0  0
   25.7950    6.5691   -5.7226 H   0  0  0  0  0  0  0  0  0  0  0  0
   22.2638   11.2226   -5.5114 H   0  0  0  0  0  0  0  0  0  0  0  0
   22.9531   13.9230   -7.3805 H   0  0  0  0  0  0  0  0  0  0  0  0
   21.9158   13.2228   -6.1477 H   0  0  0  0  0  0  0  0  0  0  0  0
   23.4917    9.5062   -1.3959 H   0  0  0  0  0  0  0  0  0  0  0  0
   22.2655    9.7093   -2.6928 H   0  0  0  0  0  0  0  0  0  0  0  0
   23.3432    8.2723   -2.6928 H   0  0  0  0  0  0  0  0  0  0  0  0
   23.3931   13.9139   -4.3644 H   0  0  0  0  0  0  0  0  0  0  0  0
   24.7675   14.1454   -5.4975 H   0  0  0  0  0  0  0  0  0  0  0  0
   23.3979   15.3077   -5.4975 H   0  0  0  0  0  0  0  0  0  0  0  0
 11 10  1  0
 11 12  2  0
 11 16  1  0
 12 13  1  0
 13 17  1  0
 13 14  2  0
 14 15  1  0
 14 21  1  0
 15 16  2  0
 17 18  1  0
 18 19  2  0
 18 20  1  0
 20 23  1  0
 10  8  1  0
  1  2  2  0
  1  5  1  0
  2  3  1  0
  3  4  1  0
  4  6  1  0
  4  7  2  0
  5  6  2  0
  6  9  1  0
  7  8  1  0
  8  9  2  0
 21 22  1  0
  1 24  1  0
  2 25  1  0
  3 26  1  0
  5 27  1  0
  9 28  1  0
 10 29  1  0
 12 30  1  0
 16 31  1  0
 17 32  1  0
 20 33  1  6
 20 34  1  0
 22 35  1  1
 22 36  1  0
 22 37  1  0
 23 38  1  1
 23 39  1  0
 23 40  1  0
M  END
>  <Pose ID>  (253)
215

>  <Score>  (253)
-6.1507954597473145

>  <smiles>  (253)
CCC(=O)Nc1cc(Nc2cc3ccc[nH]c-3n2)cnc1OC

$$$$

     RDKit          3D

 44 47  0  0  0  0  0  0  0  0999 V2000
   27.3030    8.3980  -10.1100 C   0  0  0  0  0  0  0  0  0  0  0  0
   28.1360    7.3900  -10.5770 C   0  0  0  0  0  0  0  0  0  0  0  0
   29.1820    7.6960  -11.4390 N   0  0  0  0  0  0  0  0  0  0  0  0
   29.3930    9.0100  -11.8370 C   0  0  0  0  0  0  0  0  0  0  0  0
   26.2590    7.9150   -9.2080 O   0  0  0  0  0  0  0  0  0  0  0  0
   28.5570   10.0190  -11.3710 C   0  0  0  0  0  0  0  0  0  0  0  0
   27.5140    9.7120  -10.5080 C   0  0  0  0  0  0  0  0  0  0  0  0
   30.3220    9.5480  -12.6520 N   0  0  0  0  0  0  0  0  0  0  0  0
   30.1060   10.9060  -12.7330 C   0  0  0  0  0  0  0  0  0  0  0  0
   28.9770   11.0360  -11.8940 C   0  0  0  0  0  0  0  0  0  0  0  0
   25.4900    8.7430   -8.3840 C   0  0  0  0  0  0  0  0  0  0  0  0
   24.9640    9.8910   -8.9580 N   0  0  0  0  0  0  0  0  0  0  0  0
   24.2690   10.5750   -7.9760 N   0  0  0  0  0  0  0  0  0  0  0  0
   24.3450    9.8750   -6.8380 C   0  0  0  0  0  0  0  0  0  0  0  0
   25.0580    8.7690   -7.0700 C   0  0  0  0  0  0  0  0  0  0  0  0
   23.6090   11.8220   -8.2760 C   0  0  1  0  0  0  0  0  0  0  0  0
   23.8680   10.0540   -5.5680 N   0  0  0  0  0  0  0  0  0  0  0  0
   24.4330    9.9140   -4.2180 C   0  0  1  0  0  0  0  0  0  0  0  0
   23.7380    9.1050   -3.2400 C   0  0  1  0  0  0  0  0  0  0  0  0
   22.2700    9.6510   -3.0340 C   0  0  1  0  0  0  0  0  0  0  0  0
   22.4430   10.4810   -5.4760 C   0  0  1  0  0  0  0  0  0  0  0  0
   21.5300    9.4560   -4.3450 C   0  0  1  0  0  0  0  0  0  0  0  0
   30.8630   11.9600  -13.5030 C   0  0  1  0  0  0  0  0  0  0  0  0
   27.9678    6.3488  -10.2645 H   0  0  0  0  0  0  0  0  0  0  0  0
   29.8012    6.9482  -11.7830 H   0  0  0  0  0  0  0  0  0  0  0  0
   26.8536   10.5105  -10.1388 H   0  0  0  0  0  0  0  0  0  0  0  0
   28.4987   12.0113  -11.7207 H   0  0  0  0  0  0  0  0  0  0  0  0
   25.2711    7.9903   -6.3228 H   0  0  0  0  0  0  0  0  0  0  0  0
   23.3403   12.3296   -7.3378 H   0  0  0  0  0  0  0  0  0  0  0  0
   24.2855   12.4638   -8.8595 H   0  0  0  0  0  0  0  0  0  0  0  0
   22.6979   11.6235   -8.8595 H   0  0  0  0  0  0  0  0  0  0  0  0
   25.4387    9.4838   -4.3340 H   0  0  0  0  0  0  0  0  0  0  0  0
   24.3739   10.9314   -3.8040 H   0  0  0  0  0  0  0  0  0  0  0  0
   23.6936    8.0642   -3.5932 H   0  0  0  0  0  0  0  0  0  0  0  0
   24.2784    9.1508   -2.2830 H   0  0  0  0  0  0  0  0  0  0  0  0
   21.7686    9.0904   -2.2313 H   0  0  0  0  0  0  0  0  0  0  0  0
   22.2851   10.7132   -2.7486 H   0  0  0  0  0  0  0  0  0  0  0  0
   22.4036   11.5231   -5.1262 H   0  0  0  0  0  0  0  0  0  0  0  0
   21.9882   10.3864   -6.4731 H   0  0  0  0  0  0  0  0  0  0  0  0
   21.5536    8.4021   -4.6593 H   0  0  0  0  0  0  0  0  0  0  0  0
   20.4639    9.7202   -4.2845 H   0  0  0  0  0  0  0  0  0  0  0  0
   31.3557   12.6460  -12.7982 H   0  0  0  0  0  0  0  0  0  0  0  0
   31.6221   11.4773  -14.1361 H   0  0  0  0  0  0  0  0  0  0  0  0
   30.1631   12.5251  -14.1361 H   0  0  0  0  0  0  0  0  0  0  0  0
  5  1  1  0
  5 11  1  0
  1  2  2  0
  1  7  1  0
  2  3  1  0
  3  4  1  0
  4  8  2  0
  4  6  1  0
  6 10  1  0
  6  7  2  0
  8  9  1  0
  9 23  1  0
  9 10  2  0
 11 12  2  0
 11 15  1  0
 12 13  1  0
 13 16  1  0
 13 14  1  0
 14 15  2  0
 14 17  1  0
 17 21  1  0
 17 18  1  0
 18 19  1  0
 19 20  1  0
 20 22  1  0
 21 22  1  0
  2 24  1  0
  3 25  1  0
  7 26  1  0
 10 27  1  0
 15 28  1  0
 16 29  1  1
 16 30  1  0
 16 31  1  0
 18 32  1  6
 18 33  1  0
 19 34  1  6
 19 35  1  0
 20 36  1  1
 20 37  1  0
 21 38  1  1
 21 39  1  0
 22 40  1  6
 22 41  1  0
 23 42  1  1
 23 43  1  0
 23 44  1  0
M  END
>  <Pose ID>  (254)
558

>  <Score>  (254)
-6.150203227996826

>  <smiles>  (254)
Cc1cc2cc(Oc3cc(N4CCCCC4)n(C)n3)c[nH]c-2n1

$$$$

     RDKit          3D

 38 41  0  0  0  0  0  0  0  0999 V2000
   27.5920    7.7240  -10.1630 C   0  0  0  0  0  0  0  0  0  0  0  0
   28.3250    7.0380  -11.1210 C   0  0  0  0  0  0  0  0  0  0  0  0
   29.1270    7.7380  -12.0150 N   0  0  0  0  0  0  0  0  0  0  0  0
   29.1960    9.1240  -11.9490 C   0  0  0  0  0  0  0  0  0  0  0  0
   26.8080    6.8440   -9.2980 O   0  0  0  0  0  0  0  0  0  0  0  0
   28.4580    9.8130  -10.9890 C   0  0  0  0  0  0  0  0  0  0  0  0
   27.6590    9.1090  -10.0960 C   0  0  0  0  0  0  0  0  0  0  0  0
   29.8870   10.0110  -12.6920 N   0  0  0  0  0  0  0  0  0  0  0  0
   29.6140   11.2790  -12.2330 C   0  0  0  0  0  0  0  0  0  0  0  0
   28.7120   10.9850  -11.1870 C   0  0  0  0  0  0  0  0  0  0  0  0
   26.2280    7.2450   -8.0900 C   0  0  0  0  0  0  0  0  0  0  0  0
   25.5440    8.4520   -8.0900 N   0  0  0  0  0  0  0  0  0  0  0  0
   25.0770    8.6750   -6.8070 N   0  0  0  0  0  0  0  0  0  0  0  0
   25.4420    7.6400   -6.0370 C   0  0  0  0  0  0  0  0  0  0  0  0
   26.1160    6.7720   -6.7950 C   0  0  0  0  0  0  0  0  0  0  0  0
   24.3720    9.7270   -6.4320 C   0  0  0  0  0  0  0  0  0  0  0  0
   24.8760   11.0160   -6.5620 C   0  0  0  0  0  0  0  0  0  0  0  0
   23.0870    9.5290   -5.9400 C   0  0  0  0  0  0  0  0  0  0  0  0
   22.3050   10.6200   -5.5800 C   0  0  0  0  0  0  0  0  0  0  0  0
   22.8080   11.9090   -5.7110 C   0  0  0  0  0  0  0  0  0  0  0  0
   24.0930   12.1070   -6.2010 N   0  0  0  0  0  0  0  0  0  0  0  0
   26.2710   11.2310   -7.0920 C   0  0  1  0  0  0  0  0  0  0  0  0
   28.0920   12.0760  -10.3510 C   0  0  1  0  0  0  0  0  0  0  0  0
   28.2714    5.9405  -11.1730 H   0  0  0  0  0  0  0  0  0  0  0  0
   29.6703    7.2289  -12.7267 H   0  0  0  0  0  0  0  0  0  0  0  0
   27.0785    9.6504   -9.3345 H   0  0  0  0  0  0  0  0  0  0  0  0
   29.9927   12.2506  -12.5831 H   0  0  0  0  0  0  0  0  0  0  0  0
   25.2237    7.5256   -4.9650 H   0  0  0  0  0  0  0  0  0  0  0  0
   26.5250    5.8147   -6.4395 H   0  0  0  0  0  0  0  0  0  0  0  0
   22.6892    8.5088   -5.8356 H   0  0  0  0  0  0  0  0  0  0  0  0
   21.2879   10.4634   -5.1914 H   0  0  0  0  0  0  0  0  0  0  0  0
   22.1887   12.7725   -5.4267 H   0  0  0  0  0  0  0  0  0  0  0  0
   26.9706   11.3388   -6.2500 H   0  0  0  0  0  0  0  0  0  0  0  0
   26.5669   10.3679   -7.7063 H   0  0  0  0  0  0  0  0  0  0  0  0
   26.2933   12.1432   -7.7063 H   0  0  0  0  0  0  0  0  0  0  0  0
   28.2253   11.8414   -9.2846 H   0  0  0  0  0  0  0  0  0  0  0  0
   28.5800   13.0350  -10.5793 H   0  0  0  0  0  0  0  0  0  0  0  0
   27.0183   12.1475  -10.5793 H   0  0  0  0  0  0  0  0  0  0  0  0
  5  1  1  0
  5 11  1  0
  1  2  2  0
  1  7  1  0
  2  3  1  0
  3  4  1  0
  4  8  2  0
  4  6  1  0
  6 10  1  0
  6  7  2  0
  8  9  1  0
  9 10  2  0
 10 23  1  0
 11 12  2  0
 11 15  1  0
 12 13  1  0
 13 16  1  0
 13 14  1  0
 14 15  2  0
 16 17  2  0
 16 18  1  0
 17 22  1  0
 17 21  1  0
 18 19  2  0
 19 20  1  0
 20 21  2  0
  2 24  1  0
  3 25  1  0
  7 26  1  0
  9 27  1  0
 14 28  1  0
 15 29  1  0
 18 30  1  0
 19 31  1  0
 20 32  1  0
 22 33  1  1
 22 34  1  0
 22 35  1  0
 23 36  1  1
 23 37  1  0
 23 38  1  0
M  END
>  <Pose ID>  (255)
252

>  <Score>  (255)
-6.149360656738281

>  <smiles>  (255)
Cc1cnc2[nH]cc(Oc3ccn(-c4cccnc4C)n3)cc1-2

$$$$

     RDKit          3D

 37 40  0  0  0  0  0  0  0  0999 V2000
   27.8960    7.7770  -10.3660 C   0  0  0  0  0  0  0  0  0  0  0  0
   28.8890    7.0900  -11.0530 C   0  0  0  0  0  0  0  0  0  0  0  0
   29.7520    7.7780  -11.8970 N   0  0  0  0  0  0  0  0  0  0  0  0
   29.6250    9.1530  -12.0540 C   0  0  0  0  0  0  0  0  0  0  0  0
   27.0810    6.9150   -9.5160 O   0  0  0  0  0  0  0  0  0  0  0  0
   28.6290    9.8420  -11.3670 C   0  0  0  0  0  0  0  0  0  0  0  0
   27.7690    9.1520  -10.5220 C   0  0  0  0  0  0  0  0  0  0  0  0
   30.3260   10.0260  -12.8030 N   0  0  0  0  0  0  0  0  0  0  0  0
   29.8030   11.2870  -12.6210 C   0  0  0  0  0  0  0  0  0  0  0  0
   28.7600   11.0020  -11.7130 C   0  0  0  0  0  0  0  0  0  0  0  0
   26.2230    7.3850   -8.5130 C   0  0  0  0  0  0  0  0  0  0  0  0
   25.4030    8.4520   -8.8330 N   0  0  0  0  0  0  0  0  0  0  0  0
   24.6980    8.7560   -7.7360 N   0  0  0  0  0  0  0  0  0  0  0  0
   25.0010    7.9030   -6.6830 C   0  0  0  0  0  0  0  0  0  0  0  0
   25.9250    7.0840   -7.1970 C   0  0  0  0  0  0  0  0  0  0  0  0
   23.7470    9.7560   -7.5680 C   0  0  0  0  0  0  0  0  0  0  0  0
   23.1010    9.9020   -6.3470 N   0  0  0  0  0  0  0  0  0  0  0  0
   23.4030    9.0480   -5.2930 C   0  0  0  0  0  0  0  0  0  0  0  0
   24.3540    8.0480   -5.4600 C   0  0  0  0  0  0  0  0  0  0  0  0
   30.2260   12.6030  -13.2230 C   0  0  1  0  0  0  0  0  0  0  0  0
   24.6850    7.1220   -4.3170 C   0  0  1  0  0  0  0  0  0  0  0  0
   27.8480   12.0870  -11.1960 C   0  0  1  0  0  0  0  0  0  0  0  0
   28.9920    6.0019  -10.9288 H   0  0  0  0  0  0  0  0  0  0  0  0
   30.4872    7.2681  -12.4072 H   0  0  0  0  0  0  0  0  0  0  0  0
   26.9850    9.6958   -9.9746 H   0  0  0  0  0  0  0  0  0  0  0  0
   26.3951    6.2631   -6.6357 H   0  0  0  0  0  0  0  0  0  0  0  0
   23.5061   10.4316   -8.4020 H   0  0  0  0  0  0  0  0  0  0  0  0
   22.8897    9.1633   -4.3270 H   0  0  0  0  0  0  0  0  0  0  0  0
   30.4556   13.3173  -12.4186 H   0  0  0  0  0  0  0  0  0  0  0  0
   31.1206   12.4511  -13.8448 H   0  0  0  0  0  0  0  0  0  0  0  0
   29.4105   13.0008  -13.8448 H   0  0  0  0  0  0  0  0  0  0  0  0
   24.5009    7.6371   -3.3627 H   0  0  0  0  0  0  0  0  0  0  0  0
   24.0521    6.2244   -4.3772 H   0  0  0  0  0  0  0  0  0  0  0  0
   25.7435    6.8290   -4.3772 H   0  0  0  0  0  0  0  0  0  0  0  0
   27.8550   12.0786  -10.0961 H   0  0  0  0  0  0  0  0  0  0  0  0
   28.1995   13.0646  -11.5575 H   0  0  0  0  0  0  0  0  0  0  0  0
   26.8245   11.9088  -11.5575 H   0  0  0  0  0  0  0  0  0  0  0  0
  1  2  2  0
  1  7  1  0
  1  5  1  0
  2  3  1  0
  3  4  1  0
  4  8  2  0
  4  6  1  0
  6 10  1  0
  6  7  2  0
  8  9  1  0
  9 20  1  0
  9 10  2  0
 10 22  1  0
  5 11  1  0
 11 12  2  0
 11 15  1  0
 12 13  1  0
 13 16  1  0
 13 14  1  0
 14 15  2  0
 14 19  1  0
 16 17  2  0
 17 18  1  0
 18 19  2  0
 19 21  1  0
  2 23  1  0
  3 24  1  0
  7 25  1  0
 15 26  1  0
 16 27  1  0
 18 28  1  0
 20 29  1  1
 20 30  1  0
 20 31  1  0
 21 32  1  1
 21 33  1  0
 21 34  1  0
 22 35  1  1
 22 36  1  0
 22 37  1  0
M  END
>  <Pose ID>  (256)
283

>  <Score>  (256)
-6.14743185043335

>  <smiles>  (256)
Cc1nc2[nH]cc(Oc3cc4c(C)cncn4n3)cc-2c1C

$$$$

     RDKit          3D

 25 28  0  0  0  0  0  0  0  0999 V2000
   27.2050    8.2200   -9.5770 C   0  0  0  0  0  0  0  0  0  0  0  0
   27.0960    7.0940   -8.7670 N   0  0  0  0  0  0  0  0  0  0  0  0
   26.1520    7.0620   -7.7470 C   0  0  0  0  0  0  0  0  0  0  0  0
   25.3180    8.1550   -7.5360 C   0  0  0  0  0  0  0  0  0  0  0  0
   25.4260    9.2790   -8.3470 N   0  0  0  0  0  0  0  0  0  0  0  0
   26.3710    9.3120   -9.3660 C   0  0  0  0  0  0  0  0  0  0  0  0
   24.3230    8.2940   -6.5750 C   0  0  0  0  0  0  0  0  0  0  0  0
   24.0130    7.2670   -5.6910 C   0  0  0  0  0  0  0  0  0  0  0  0
   23.6110    9.4870   -6.5310 C   0  0  0  0  0  0  0  0  0  0  0  0
   22.9930    7.4310   -4.7650 N   0  0  0  0  0  0  0  0  0  0  0  0
   22.2790    8.6240   -4.7210 C   0  0  0  0  0  0  0  0  0  0  0  0
   24.2870   10.2160   -7.7140 N   0  0  0  0  0  0  0  0  0  0  0  0
   22.5880    9.6520   -5.6040 C   0  0  0  0  0  0  0  0  0  0  0  0
   28.1600    8.2520  -10.6080 C   0  0  0  0  0  0  0  0  0  0  0  0
   29.2060    9.1670  -10.6360 O   0  0  0  0  0  0  0  0  0  0  0  0
   28.2210    7.4390  -11.7040 N   0  0  0  0  0  0  0  0  0  0  0  0
   29.8670    8.8510  -11.7990 C   0  0  0  0  0  0  0  0  0  0  0  0
   29.2730    7.7950  -12.4740 C   0  0  0  0  0  0  0  0  0  0  0  0
   26.0646    6.1720   -7.1065 H   0  0  0  0  0  0  0  0  0  0  0  0
   26.4589   10.2026  -10.0056 H   0  0  0  0  0  0  0  0  0  0  0  0
   24.5770    6.3232   -5.7257 H   0  0  0  0  0  0  0  0  0  0  0  0
   21.4698    8.7539   -3.9873 H   0  0  0  0  0  0  0  0  0  0  0  0
   22.0235   10.5955   -5.5694 H   0  0  0  0  0  0  0  0  0  0  0  0
   30.7657    9.3764  -12.1543 H   0  0  0  0  0  0  0  0  0  0  0  0
   29.5889    7.3458  -13.4271 H   0  0  0  0  0  0  0  0  0  0  0  0
  1 14  1  0
  1  6  2  0
  1  2  1  0
  2  3  2  0
  3  4  1  0
  4  5  1  0
  4  7  2  0
  5  6  1  0
  5 12  1  0
  7  9  1  0
  7  8  1  0
  8 10  2  0
  9 12  2  0
  9 13  1  0
 10 11  1  0
 11 13  2  0
 14 16  2  0
 14 15  1  0
 15 17  1  0
 16 18  1  0
 17 18  2  0
  3 19  1  0
  6 20  1  0
  8 21  1  0
 11 22  1  0
 13 23  1  0
 17 24  1  0
 18 25  1  0
M  END
>  <Pose ID>  (257)
53

>  <Score>  (257)
-6.142026424407959

>  <smiles>  (257)
c1cc2nn3cc(-c4ncco4)ncc3c2cn1

$$$$

     RDKit          3D

 36 38  0  0  0  0  0  0  0  0999 V2000
   26.6710    9.2070  -10.3840 C   0  0  0  0  0  0  0  0  0  0  0  0
   27.3200    8.0320  -10.0170 C   0  0  0  0  0  0  0  0  0  0  0  0
   28.5750    7.7380  -10.5380 N   0  0  0  0  0  0  0  0  0  0  0  0
   25.4540    9.7910  -10.0550 N   0  0  0  0  0  0  0  0  0  0  0  0
   29.1800    8.6160  -11.4330 C   0  0  0  0  0  0  0  0  0  0  0  0
   28.5310    9.7880  -11.8020 C   0  0  0  0  0  0  0  0  0  0  0  0
   27.2770   10.0830  -11.2780 C   0  0  0  0  0  0  0  0  0  0  0  0
   30.3660    8.5520  -12.0640 N   0  0  0  0  0  0  0  0  0  0  0  0
   30.5100    9.6700  -12.8500 C   0  0  0  0  0  0  0  0  0  0  0  0
   29.2900   10.3280  -12.5860 C   0  0  0  0  0  0  0  0  0  0  0  0
   25.0990   10.3320   -8.7220 C   0  0  0  0  0  0  0  0  0  0  0  0
   23.9020   10.9100   -8.3360 N   0  0  0  0  0  0  0  0  0  0  0  0
   23.7460   11.4130   -7.0500 C   0  0  0  0  0  0  0  0  0  0  0  0
   24.7890   11.3010   -6.1370 C   0  0  0  0  0  0  0  0  0  0  0  0
   25.9870   10.7080   -6.5160 C   0  0  0  0  0  0  0  0  0  0  0  0
   26.1400   10.2220   -7.8090 N   0  0  0  0  0  0  0  0  0  0  0  0
   26.9190   10.6120   -5.7000 O   0  0  0  0  0  0  0  0  0  0  0  0
   26.6330   11.2440  -11.6470 O   0  0  0  0  0  0  0  0  0  0  0  0
   27.2750   12.3590  -11.0420 C   0  0  1  0  0  0  0  0  0  0  0  0
   26.6690   12.8040   -9.7040 C   0  0  1  0  0  0  0  0  0  0  0  0
   26.6620    7.0770   -9.0530 C   0  0  1  0  0  0  0  0  0  0  0  0
   29.0571    6.8707  -10.2618 H   0  0  0  0  0  0  0  0  0  0  0  0
   24.7420    9.8528  -10.7967 H   0  0  0  0  0  0  0  0  0  0  0  0
   31.3436    9.9686  -13.5027 H   0  0  0  0  0  0  0  0  0  0  0  0
   29.0364   11.2846  -13.0663 H   0  0  0  0  0  0  0  0  0  0  0  0
   22.8030   11.8969   -6.7559 H   0  0  0  0  0  0  0  0  0  0  0  0
   24.6653   11.6826   -5.1128 H   0  0  0  0  0  0  0  0  0  0  0  0
   27.0265    9.7797   -8.0906 H   0  0  0  0  0  0  0  0  0  0  0  0
   28.3287   12.0946  -10.8691 H   0  0  0  0  0  0  0  0  0  0  0  0
   27.1469   13.2032  -11.7354 H   0  0  0  0  0  0  0  0  0  0  0  0
   27.2530   12.3752   -8.8763 H   0  0  0  0  0  0  0  0  0  0  0  0
   26.6914   13.9018   -9.6384 H   0  0  0  0  0  0  0  0  0  0  0  0
   25.6282   12.4540   -9.6384 H   0  0  0  0  0  0  0  0  0  0  0  0
   26.8781    7.3907   -8.0211 H   0  0  0  0  0  0  0  0  0  0  0  0
   25.5744    7.0814   -9.2174 H   0  0  0  0  0  0  0  0  0  0  0  0
   27.0535    6.0623   -9.2174 H   0  0  0  0  0  0  0  0  0  0  0  0
  1  7  1  0
  1  4  1  0
  1  2  2  0
  2  3  1  0
  2 21  1  0
  3  5  1  0
  5  8  2  0
  5  6  1  0
  6 10  1  0
  6  7  2  0
  7 18  1  0
  8  9  1  0
  9 10  2  0
  4 11  1  0
 11 12  2  0
 11 16  1  0
 12 13  1  0
 13 14  2  0
 14 15  1  0
 15 16  1  0
 15 17  2  0
 18 19  1  0
 19 20  1  0
  3 22  1  0
  4 23  1  0
  9 24  1  0
 10 25  1  0
 13 26  1  0
 14 27  1  0
 16 28  1  0
 19 29  1  1
 19 30  1  0
 20 31  1  1
 20 32  1  0
 20 33  1  0
 21 34  1  1
 21 35  1  0
 21 36  1  0
M  END
>  <Pose ID>  (258)
34

>  <Score>  (258)
-6.141541957855225

>  <smiles>  (258)
CCOc1c2ccnc-2[nH]c(C)c1Nc1nccc(=O)[nH]1

$$$$

     RDKit          3D

 34 37  0  0  0  0  0  0  0  0999 V2000
   27.8000    7.7730  -10.2810 C   0  0  0  0  0  0  0  0  0  0  0  0
   28.7820    7.0880  -10.9860 C   0  0  0  0  0  0  0  0  0  0  0  0
   29.6370    7.7790  -11.8350 N   0  0  0  0  0  0  0  0  0  0  0  0
   29.5110    9.1560  -11.9800 C   0  0  0  0  0  0  0  0  0  0  0  0
   26.9910    6.9050   -9.4280 O   0  0  0  0  0  0  0  0  0  0  0  0
   28.5260    9.8420  -11.2770 C   0  0  0  0  0  0  0  0  0  0  0  0
   27.6730    9.1490  -10.4260 C   0  0  0  0  0  0  0  0  0  0  0  0
   30.2070   10.0320  -12.7300 N   0  0  0  0  0  0  0  0  0  0  0  0
   29.6900   11.2930  -12.5330 C   0  0  0  0  0  0  0  0  0  0  0  0
   28.6560   11.0040  -11.6160 C   0  0  0  0  0  0  0  0  0  0  0  0
   26.1470    7.3700   -8.4120 C   0  0  0  0  0  0  0  0  0  0  0  0
   25.3260    8.4430   -8.7150 N   0  0  0  0  0  0  0  0  0  0  0  0
   24.6340    8.7400   -7.6070 N   0  0  0  0  0  0  0  0  0  0  0  0
   24.9470    7.8790   -6.5640 C   0  0  0  0  0  0  0  0  0  0  0  0
   25.8630    7.0600   -7.0950 C   0  0  0  0  0  0  0  0  0  0  0  0
   23.6880    9.7410   -7.4210 C   0  0  0  0  0  0  0  0  0  0  0  0
   23.0550    9.8810   -6.1920 N   0  0  0  0  0  0  0  0  0  0  0  0
   23.3680    9.0180   -5.1470 C   0  0  0  0  0  0  0  0  0  0  0  0
   24.3140    8.0170   -5.3330 C   0  0  0  0  0  0  0  0  0  0  0  0
   22.6810    9.1690   -3.8130 C   0  0  1  0  0  0  0  0  0  0  0  0
   24.6550    7.0810   -4.2000 C   0  0  1  0  0  0  0  0  0  0  0  0
   28.8823    5.9986  -10.8718 H   0  0  0  0  0  0  0  0  0  0  0  0
   30.3649    7.2709  -12.3575 H   0  0  0  0  0  0  0  0  0  0  0  0
   26.8962    9.6908   -9.8665 H   0  0  0  0  0  0  0  0  0  0  0  0
   29.9966   12.2556  -12.9681 H   0  0  0  0  0  0  0  0  0  0  0  0
   27.9973   11.7936  -11.2253 H   0  0  0  0  0  0  0  0  0  0  0  0
   26.3365    6.2332   -6.5453 H   0  0  0  0  0  0  0  0  0  0  0  0
   23.4401   10.4232   -8.2476 H   0  0  0  0  0  0  0  0  0  0  0  0
   23.4100    9.0088   -3.0049 H   0  0  0  0  0  0  0  0  0  0  0  0
   22.2588   10.1814   -3.7305 H   0  0  0  0  0  0  0  0  0  0  0  0
   21.8732    8.4270   -3.7305 H   0  0  0  0  0  0  0  0  0  0  0  0
   24.4713    7.5853   -3.2398 H   0  0  0  0  0  0  0  0  0  0  0  0
   24.0273    6.1802   -4.2670 H   0  0  0  0  0  0  0  0  0  0  0  0
   25.7151    6.7951   -4.2670 H   0  0  0  0  0  0  0  0  0  0  0  0
  5  1  1  0
  5 11  1  0
 11 12  2  0
 11 15  1  0
 12 13  1  0
 13 16  1  0
 13 14  1  0
 14 15  2  0
 14 19  1  0
 16 17  2  0
 17 18  1  0
 18 19  2  0
 18 20  1  0
 19 21  1  0
  1  2  2  0
  1  7  1  0
  2  3  1  0
  3  4  1  0
  4  8  2  0
  4  6  1  0
  6 10  1  0
  6  7  2  0
  8  9  1  0
  9 10  2  0
  2 22  1  0
  3 23  1  0
  7 24  1  0
  9 25  1  0
 10 26  1  0
 15 27  1  0
 16 28  1  0
 20 29  1  1
 20 30  1  0
 20 31  1  0
 21 32  1  1
 21 33  1  0
 21 34  1  0
M  END
>  <Pose ID>  (259)
294

>  <Score>  (259)
-6.140659809112549

>  <smiles>  (259)
Cc1ncn2nc(Oc3c[nH]c4nccc-4c3)cc2c1C

$$$$

     RDKit          3D

 37 40  0  0  0  0  0  0  0  0999 V2000
   27.7680    7.7560  -10.2390 C   0  0  0  0  0  0  0  0  0  0  0  0
   28.7570    7.0790  -10.9440 C   0  0  0  0  0  0  0  0  0  0  0  0
   29.5980    7.7750  -11.8030 N   0  0  0  0  0  0  0  0  0  0  0  0
   29.4530    9.1490  -11.9570 C   0  0  0  0  0  0  0  0  0  0  0  0
   26.9760    6.8830   -9.3770 O   0  0  0  0  0  0  0  0  0  0  0  0
   28.4620    9.8270  -11.2530 C   0  0  0  0  0  0  0  0  0  0  0  0
   27.6230    9.1290  -10.3930 C   0  0  0  0  0  0  0  0  0  0  0  0
   30.1330   10.0300  -12.7160 N   0  0  0  0  0  0  0  0  0  0  0  0
   29.6000   11.2850  -12.5250 C   0  0  0  0  0  0  0  0  0  0  0  0
   28.5750   10.9890  -11.6010 C   0  0  0  0  0  0  0  0  0  0  0  0
   26.1300    7.3440   -8.3600 C   0  0  0  0  0  0  0  0  0  0  0  0
   25.2950    8.4040   -8.6660 N   0  0  0  0  0  0  0  0  0  0  0  0
   24.6030    8.6990   -7.5570 N   0  0  0  0  0  0  0  0  0  0  0  0
   24.9330    7.8490   -6.5090 C   0  0  0  0  0  0  0  0  0  0  0  0
   25.8570    7.0400   -7.0390 C   0  0  0  0  0  0  0  0  0  0  0  0
   23.6450    9.6880   -7.3730 C   0  0  0  0  0  0  0  0  0  0  0  0
   23.0170    9.8280   -6.1410 N   0  0  0  0  0  0  0  0  0  0  0  0
   23.3470    8.9770   -5.0920 C   0  0  0  0  0  0  0  0  0  0  0  0
   24.3050    7.9880   -5.2760 C   0  0  0  0  0  0  0  0  0  0  0  0
   22.6640    9.1280   -3.7550 C   0  0  1  0  0  0  0  0  0  0  0  0
   27.6600   12.0630  -11.0670 C   0  0  1  0  0  0  0  0  0  0  0  0
   24.6640    7.0640   -4.1380 C   0  0  1  0  0  0  0  0  0  0  0  0
   28.8734    5.9921  -10.8215 H   0  0  0  0  0  0  0  0  0  0  0  0
   30.3294    7.2728  -12.3261 H   0  0  0  0  0  0  0  0  0  0  0  0
   26.8424    9.6647   -9.8330 H   0  0  0  0  0  0  0  0  0  0  0  0
   29.8914   12.2486  -12.9684 H   0  0  0  0  0  0  0  0  0  0  0  0
   26.3451    6.2241   -6.4858 H   0  0  0  0  0  0  0  0  0  0  0  0
   23.3832   10.3608   -8.2029 H   0  0  0  0  0  0  0  0  0  0  0  0
   23.3953    8.9663   -2.9494 H   0  0  0  0  0  0  0  0  0  0  0  0
   22.2433   10.1408   -3.6705 H   0  0  0  0  0  0  0  0  0  0  0  0
   21.8555    8.3869   -3.6705 H   0  0  0  0  0  0  0  0  0  0  0  0
   27.6757   12.0446   -9.9673 H   0  0  0  0  0  0  0  0  0  0  0  0
   28.0022   13.0462  -11.4222 H   0  0  0  0  0  0  0  0  0  0  0  0
   26.6349   11.8813  -11.4222 H   0  0  0  0  0  0  0  0  0  0  0  0
   24.4680    7.5684   -3.1803 H   0  0  0  0  0  0  0  0  0  0  0  0
   24.0556    6.1498   -4.2021 H   0  0  0  0  0  0  0  0  0  0  0  0
   25.7300    6.8003   -4.2021 H   0  0  0  0  0  0  0  0  0  0  0  0
  5  1  1  0
  5 11  1  0
  1  2  2  0
  1  7  1  0
  2  3  1  0
  3  4  1  0
  4  8  2  0
  4  6  1  0
  6 10  1  0
  6  7  2  0
  8  9  1  0
  9 10  2  0
 10 21  1  0
 11 12  2  0
 11 15  1  0
 12 13  1  0
 13 16  1  0
 13 14  1  0
 14 15  2  0
 14 19  1  0
 16 17  2  0
 17 18  1  0
 18 19  2  0
 18 20  1  0
 19 22  1  0
  2 23  1  0
  3 24  1  0
  7 25  1  0
  9 26  1  0
 15 27  1  0
 16 28  1  0
 20 29  1  1
 20 30  1  0
 20 31  1  0
 21 32  1  1
 21 33  1  0
 21 34  1  0
 22 35  1  1
 22 36  1  0
 22 37  1  0
M  END
>  <Pose ID>  (260)
306

>  <Score>  (260)
-6.135706424713135

>  <smiles>  (260)
Cc1cnc2[nH]cc(Oc3cc4c(C)c(C)ncn4n3)cc1-2

$$$$

     RDKit          3D

 29 32  0  0  0  0  0  0  0  0999 V2000
   26.9420    6.9700   -9.0770 C   0  0  0  0  0  0  0  0  0  0  0  0
   28.0020    7.5400   -9.7700 N   0  0  0  0  0  0  0  0  0  0  0  0
   25.8600    7.7550   -8.6950 N   0  0  0  0  0  0  0  0  0  0  0  0
   25.8340    9.0440   -9.0080 C   0  0  0  0  0  0  0  0  0  0  0  0
   26.7930    9.8200   -9.6480 C   0  0  0  0  0  0  0  0  0  0  0  0
   27.9800    8.8940  -10.0850 C   0  0  0  0  0  0  0  0  0  0  0  0
   24.6730    9.6350   -8.5240 N   0  0  0  0  0  0  0  0  0  0  0  0
   24.4720   11.0020   -8.6800 C   0  0  0  0  0  0  0  0  0  0  0  0
   25.4310   11.7770   -9.3200 N   0  0  0  0  0  0  0  0  0  0  0  0
   26.5920   11.1990   -9.8020 C   0  0  0  0  0  0  0  0  0  0  0  0
   27.5710   11.9830  -10.4870 C   0  0  0  0  0  0  0  0  0  0  0  0
   27.8490   11.5450  -11.7770 C   0  0  0  0  0  0  0  0  0  0  0  0
   28.3440   12.9840   -9.9120 C   0  0  0  0  0  0  0  0  0  0  0  0
   29.3960   13.5460  -10.6240 C   0  0  0  0  0  0  0  0  0  0  0  0
   29.6760   13.1080  -11.9140 C   0  0  0  0  0  0  0  0  0  0  0  0
   28.9020   12.1080  -12.4900 C   0  0  0  0  0  0  0  0  0  0  0  0
   30.7280   13.7970  -12.3940 N   0  0  0  0  0  0  0  0  0  0  0  0
   31.0890   14.6520  -11.3940 O   0  0  0  0  0  0  0  0  0  0  0  0
   30.3250   14.5240  -10.3790 C   0  0  0  0  0  0  0  0  0  0  0  0
   23.2120   11.6430   -8.1530 C   0  0  1  0  0  0  0  0  0  0  0  0
   26.9585    5.8981   -8.8305 H   0  0  0  0  0  0  0  0  0  0  0  0
   28.8159    9.3260  -10.6548 H   0  0  0  0  0  0  0  0  0  0  0  0
   27.2364   10.7536  -12.2334 H   0  0  0  0  0  0  0  0  0  0  0  0
   28.1228   13.3318   -8.8921 H   0  0  0  0  0  0  0  0  0  0  0  0
   29.1223   11.7615  -13.5105 H   0  0  0  0  0  0  0  0  0  0  0  0
   30.4006   15.1088   -9.4504 H   0  0  0  0  0  0  0  0  0  0  0  0
   23.2287   11.6345   -7.0532 H   0  0  0  0  0  0  0  0  0  0  0  0
   23.1516   12.6814   -8.5108 H   0  0  0  0  0  0  0  0  0  0  0  0
   22.3371   11.0804   -8.5108 H   0  0  0  0  0  0  0  0  0  0  0  0
  1  2  2  0
  1  3  1  0
  2  6  1  0
  3  4  2  0
  4  5  1  0
  4  7  1  0
  5  6  2  0
  5 10  1  0
  7  8  2  0
  8  9  1  0
  8 20  1  0
  9 10  2  0
 10 11  1  0
 11 12  1  0
 11 13  2  0
 12 16  2  0
 13 14  1  0
 14 15  1  0
 14 19  2  0
 15 16  1  0
 15 17  2  0
 17 18  1  0
 18 19  1  0
  1 21  1  0
  6 22  1  0
 12 23  1  0
 13 24  1  0
 16 25  1  0
 19 26  1  0
 20 27  1  1
 20 28  1  0
 20 29  1  0
M  END
>  <Pose ID>  (261)
14

>  <Score>  (261)
-6.134438991546631

>  <smiles>  (261)
Cc1nc(-c2ccc3nocc3c2)c2cncnc2n1

$$$$

     RDKit          3D

 40 43  0  0  0  0  0  0  0  0999 V2000
   27.4980    7.9770  -10.1870 C   0  0  0  0  0  0  0  0  0  0  0  0
   28.5970    7.1920  -10.5040 C   0  0  0  0  0  0  0  0  0  0  0  0
   29.6060    7.7040  -11.3110 N   0  0  0  0  0  0  0  0  0  0  0  0
   26.6710    7.2770   -9.3950 N   0  0  0  0  0  0  0  0  0  0  0  0
   29.5130    9.0000  -11.8010 C   0  0  0  0  0  0  0  0  0  0  0  0
   28.4120    9.7850  -11.4830 C   0  0  0  0  0  0  0  0  0  0  0  0
   27.4050    9.2760  -10.6770 C   0  0  0  0  0  0  0  0  0  0  0  0
   30.3480    9.7050  -12.5870 N   0  0  0  0  0  0  0  0  0  0  0  0
   29.8090   10.9520  -12.7950 C   0  0  0  0  0  0  0  0  0  0  0  0
   28.6100   10.8410  -12.0590 C   0  0  0  0  0  0  0  0  0  0  0  0
   26.0760    7.8210   -8.2150 C   0  0  0  0  0  0  0  0  0  0  0  0
   25.4060    6.9580   -7.3570 N   0  0  0  0  0  0  0  0  0  0  0  0
   24.7140    7.4630   -6.2620 C   0  0  0  0  0  0  0  0  0  0  0  0
   24.6920    8.8330   -6.0270 C   0  0  0  0  0  0  0  0  0  0  0  0
   25.3630    9.6970   -6.8850 C   0  0  0  0  0  0  0  0  0  0  0  0
   26.0810    9.1840   -7.9630 C   0  0  0  0  0  0  0  0  0  0  0  0
   23.9740    6.8160   -5.2680 C   0  0  0  0  0  0  0  0  0  0  0  0
   23.6340    7.7970   -4.3620 N   0  0  0  0  0  0  0  0  0  0  0  0
   24.0480    8.9780   -4.6890 C   0  0  0  0  0  0  0  0  0  0  0  0
   24.0160   10.2230   -4.1030 O   0  0  0  0  0  0  0  0  0  0  0  0
   22.6830   10.6920   -4.1250 C   0  0  1  0  0  0  0  0  0  0  0  0
   30.3480   12.1160  -13.5890 C   0  0  1  0  0  0  0  0  0  0  0  0
   29.7440   13.4370  -13.2210 C   0  0  1  0  0  0  0  0  0  0  0  0
   28.6698    6.1650  -10.1169 H   0  0  0  0  0  0  0  0  0  0  0  0
   30.4229    7.1221  -11.5457 H   0  0  0  0  0  0  0  0  0  0  0  0
   26.4551    6.3025   -9.6494 H   0  0  0  0  0  0  0  0  0  0  0  0
   26.5337    9.8984  -10.4253 H   0  0  0  0  0  0  0  0  0  0  0  0
   27.8876   11.6689  -12.0075 H   0  0  0  0  0  0  0  0  0  0  0  0
   25.4219    5.9431   -7.5322 H   0  0  0  0  0  0  0  0  0  0  0  0
   25.3271   10.7829   -6.7131 H   0  0  0  0  0  0  0  0  0  0  0  0
   26.6524    9.8612   -8.6148 H   0  0  0  0  0  0  0  0  0  0  0  0
   23.7170    5.7476   -5.2193 H   0  0  0  0  0  0  0  0  0  0  0  0
   22.3219   10.8190   -3.0937 H   0  0  0  0  0  0  0  0  0  0  0  0
   22.6429   11.6582   -4.6492 H   0  0  0  0  0  0  0  0  0  0  0  0
   22.0467    9.9638   -4.6492 H   0  0  0  0  0  0  0  0  0  0  0  0
   31.4339   12.1742  -13.4236 H   0  0  0  0  0  0  0  0  0  0  0  0
   30.0890   11.9300  -14.6418 H   0  0  0  0  0  0  0  0  0  0  0  0
   29.7021   13.5286  -12.1256 H   0  0  0  0  0  0  0  0  0  0  0  0
   30.3601   14.2495  -13.6336 H   0  0  0  0  0  0  0  0  0  0  0  0
   28.7264   13.5026  -13.6336 H   0  0  0  0  0  0  0  0  0  0  0  0
  4  1  1  0
  4 11  1  0
  1  7  1  0
  1  2  2  0
  2  3  1  0
  3  5  1  0
  5  8  2  0
  5  6  1  0
  6 10  1  0
  6  7  2  0
  8  9  1  0
  9 22  1  0
  9 10  2  0
 22 23  1  0
 11 16  2  0
 11 12  1  0
 12 13  1  0
 13 14  1  0
 13 17  2  0
 14 15  2  0
 14 19  1  0
 15 16  1  0
 17 18  1  0
 18 19  2  0
 19 20  1  0
 20 21  1  0
  2 24  1  0
  3 25  1  0
  4 26  1  0
  7 27  1  0
 10 28  1  0
 12 29  1  0
 15 30  1  0
 16 31  1  0
 17 32  1  0
 21 33  1  1
 21 34  1  0
 21 35  1  0
 22 36  1  6
 22 37  1  0
 23 38  1  1
 23 39  1  0
 23 40  1  0
M  END
>  <Pose ID>  (262)
60

>  <Score>  (262)
-6.13203763961792

>  <smiles>  (262)
CCc1cc2cc(Nc3ccc4c(OC)ncc-4[nH]3)c[nH]c-2n1

$$$$

     RDKit          3D

 37 40  0  0  0  0  0  0  0  0999 V2000
   27.8850    7.9020  -10.3240 C   0  0  0  0  0  0  0  0  0  0  0  0
   28.8030    7.1450  -11.0410 C   0  0  0  0  0  0  0  0  0  0  0  0
   29.6860    7.7680  -11.9130 N   0  0  0  0  0  0  0  0  0  0  0  0
   29.6540    9.1500  -12.0680 C   0  0  0  0  0  0  0  0  0  0  0  0
   27.0340    7.1010   -9.4510 O   0  0  0  0  0  0  0  0  0  0  0  0
   28.7330    9.9080  -11.3510 C   0  0  0  0  0  0  0  0  0  0  0  0
   27.8510    9.2820  -10.4790 C   0  0  0  0  0  0  0  0  0  0  0  0
   30.3960    9.9710  -12.8380 N   0  0  0  0  0  0  0  0  0  0  0  0
   29.9710   11.2650  -12.6420 C   0  0  0  0  0  0  0  0  0  0  0  0
   28.9370   11.0550  -11.7030 C   0  0  0  0  0  0  0  0  0  0  0  0
   26.2420    7.6290   -8.4210 C   0  0  0  0  0  0  0  0  0  0  0  0
   25.4930    8.7550   -8.7200 N   0  0  0  0  0  0  0  0  0  0  0  0
   24.8540    9.1050   -7.6270 N   0  0  0  0  0  0  0  0  0  0  0  0
   25.0830    8.2850   -6.5280 C   0  0  0  0  0  0  0  0  0  0  0  0
   25.9620    7.3490   -7.0960 C   0  0  0  0  0  0  0  0  0  0  0  0
   23.9920   10.1900   -7.5160 C   0  0  0  0  0  0  0  0  0  0  0  0
   23.3590   10.4560   -6.3090 C   0  0  0  0  0  0  0  0  0  0  0  0
   23.5890    9.6360   -5.2100 C   0  0  0  0  0  0  0  0  0  0  0  0
   24.4490    8.5510   -5.3190 N   0  0  0  0  0  0  0  0  0  0  0  0
   30.4690   12.5490  -13.2580 C   0  0  1  0  0  0  0  0  0  0  0  0
   29.2930   13.3950  -13.7880 C   0  0  1  0  0  0  0  0  0  0  0  0
   23.7450   11.0810   -8.7080 C   0  0  1  0  0  0  0  0  0  0  0  0
   28.8304    6.0522  -10.9180 H   0  0  0  0  0  0  0  0  0  0  0  0
   30.3654    7.2062  -12.4456 H   0  0  0  0  0  0  0  0  0  0  0  0
   27.1242    9.8804   -9.9101 H   0  0  0  0  0  0  0  0  0  0  0  0
   28.3422   11.8914  -11.3072 H   0  0  0  0  0  0  0  0  0  0  0  0
   26.3802    6.4909   -6.5494 H   0  0  0  0  0  0  0  0  0  0  0  0
   22.6765   11.3143   -6.2225 H   0  0  0  0  0  0  0  0  0  0  0  0
   23.0892    9.8469   -4.2531 H   0  0  0  0  0  0  0  0  0  0  0  0
   31.0142   13.1263  -12.4968 H   0  0  0  0  0  0  0  0  0  0  0  0
   31.1328   12.3018  -14.0996 H   0  0  0  0  0  0  0  0  0  0  0  0
   28.7242   13.8042  -12.9400 H   0  0  0  0  0  0  0  0  0  0  0  0
   29.6826   14.2211  -14.4010 H   0  0  0  0  0  0  0  0  0  0  0  0
   28.6336   12.7630  -14.4010 H   0  0  0  0  0  0  0  0  0  0  0  0
   23.4661   12.0872   -8.3621 H   0  0  0  0  0  0  0  0  0  0  0  0
   24.6599   11.1427   -9.3155 H   0  0  0  0  0  0  0  0  0  0  0  0
   22.9289   10.6628   -9.3155 H   0  0  0  0  0  0  0  0  0  0  0  0
  1  2  2  0
  1  7  1  0
  1  5  1  0
  2  3  1  0
  3  4  1  0
  4  8  2  0
  4  6  1  0
  6 10  1  0
  6  7  2  0
  8  9  1  0
  9 20  1  0
  9 10  2  0
 20 21  1  0
  5 11  1  0
 11 12  2  0
 11 15  1  0
 12 13  1  0
 13 16  1  0
 13 14  1  0
 14 15  2  0
 14 19  1  0
 16 22  1  0
 16 17  2  0
 17 18  1  0
 18 19  2  0
  2 23  1  0
  3 24  1  0
  7 25  1  0
 10 26  1  0
 15 27  1  0
 17 28  1  0
 18 29  1  0
 20 30  1  1
 20 31  1  0
 21 32  1  1
 21 33  1  0
 21 34  1  0
 22 35  1  1
 22 36  1  0
 22 37  1  0
M  END
>  <Pose ID>  (263)
368

>  <Score>  (263)
-6.13103723526001

>  <smiles>  (263)
CCc1cc2cc(Oc3cc4nccc(C)n4n3)c[nH]c-2n1

$$$$

     RDKit          3D

 27 28  0  0  0  0  0  0  0  0999 V2000
   25.9640    7.4450   -8.3020 C   0  0  0  0  0  0  0  0  0  0  0  0
   25.4990    8.7380   -8.4980 N   0  0  0  0  0  0  0  0  0  0  0  0
   27.0540    6.9800   -9.0260 N   0  0  0  0  0  0  0  0  0  0  0  0
   26.1230    9.5680   -9.4230 C   0  0  0  0  0  0  0  0  0  0  0  0
   25.6130   10.8520   -9.5280 O   0  0  0  0  0  0  0  0  0  0  0  0
   27.6790    7.8090   -9.9510 C   0  0  0  0  0  0  0  0  0  0  0  0
   27.2140    9.1020  -10.1480 C   0  0  0  0  0  0  0  0  0  0  0  0
   26.2150   11.9880  -10.1190 C   0  0  0  0  0  0  0  0  0  0  0  0
   26.8240   11.7540  -11.3480 N   0  0  0  0  0  0  0  0  0  0  0  0
   27.3820   12.9670  -11.7560 N   0  0  0  0  0  0  0  0  0  0  0  0
   27.1180   13.8960  -10.8360 C   0  0  0  0  0  0  0  0  0  0  0  0
   26.4040   13.3230   -9.8570 C   0  0  0  0  0  0  0  0  0  0  0  0
   28.0930   13.0530  -13.0100 C   0  0  1  0  0  0  0  0  0  0  0  0
   25.8800   14.0420   -8.6390 C   0  0  1  0  0  0  0  0  0  0  0  0
   29.4160   12.1300  -13.2100 C   0  0  1  0  0  0  0  0  0  0  0  0
   25.4685    6.7878   -7.5723 H   0  0  0  0  0  0  0  0  0  0  0  0
   28.5412    7.4405  -10.5262 H   0  0  0  0  0  0  0  0  0  0  0  0
   27.7092    9.7586  -10.8785 H   0  0  0  0  0  0  0  0  0  0  0  0
   27.4318   14.9496  -10.8741 H   0  0  0  0  0  0  0  0  0  0  0  0
   27.3836   12.7824  -13.8059 H   0  0  0  0  0  0  0  0  0  0  0  0
   28.4748   14.0843  -13.0357 H   0  0  0  0  0  0  0  0  0  0  0  0
   26.2459   13.5400   -7.7312 H   0  0  0  0  0  0  0  0  0  0  0  0
   26.2318   15.0842   -8.6488 H   0  0  0  0  0  0  0  0  0  0  0  0
   24.7802   14.0262   -8.6488 H   0  0  0  0  0  0  0  0  0  0  0  0
   29.8191   11.8488  -12.2259 H   0  0  0  0  0  0  0  0  0  0  0  0
   29.1482   11.2217  -13.7697 H   0  0  0  0  0  0  0  0  0  0  0  0
   30.1760   12.6949  -13.7697 H   0  0  0  0  0  0  0  0  0  0  0  0
  8  9  2  0
  8 12  1  0
  8  5  1  0
  9 10  1  0
 10 13  1  0
 10 11  1  0
 11 12  2  0
 12 14  1  0
 13 15  1  0
  5  4  1  0
  1  3  2  0
  1  2  1  0
  2  4  2  0
  3  6  1  0
  4  7  1  0
  6  7  2  0
  1 16  1  0
  6 17  1  0
  7 18  1  0
 11 19  1  0
 13 20  1  6
 13 21  1  0
 14 22  1  1
 14 23  1  0
 14 24  1  0
 15 25  1  1
 15 26  1  0
 15 27  1  0
M  END
>  <Pose ID>  (264)
3

>  <Score>  (264)
-6.129096508026123

>  <smiles>  (264)
CCn1cc(C)c(Oc2ccncn2)n1

$$$$

     RDKit          3D

 36 38  0  0  0  0  0  0  0  0999 V2000
   26.7600    8.9180  -10.3940 C   0  0  0  0  0  0  0  0  0  0  0  0
   27.4050    7.7000  -10.2040 C   0  0  0  0  0  0  0  0  0  0  0  0
   28.6550    7.4790  -10.7710 N   0  0  0  0  0  0  0  0  0  0  0  0
   25.5480    9.4540   -9.9760 N   0  0  0  0  0  0  0  0  0  0  0  0
   29.2590    8.4750  -11.5340 C   0  0  0  0  0  0  0  0  0  0  0  0
   28.6130    9.6900  -11.7250 C   0  0  0  0  0  0  0  0  0  0  0  0
   27.3640    9.9120  -11.1570 C   0  0  0  0  0  0  0  0  0  0  0  0
   30.4410    8.4970  -12.1750 N   0  0  0  0  0  0  0  0  0  0  0  0
   30.5860    9.7160  -12.7940 C   0  0  0  0  0  0  0  0  0  0  0  0
   29.3710   10.3340  -12.4290 C   0  0  0  0  0  0  0  0  0  0  0  0
   25.2030    9.7990   -8.5760 C   0  0  0  0  0  0  0  0  0  0  0  0
   24.0120   10.3190   -8.1040 N   0  0  0  0  0  0  0  0  0  0  0  0
   23.8660   10.6320   -6.7570 C   0  0  0  0  0  0  0  0  0  0  0  0
   24.9140   10.3860   -5.8770 C   0  0  0  0  0  0  0  0  0  0  0  0
   26.1070    9.8490   -6.3460 C   0  0  0  0  0  0  0  0  0  0  0  0
   26.2500    9.5540   -7.6960 N   0  0  0  0  0  0  0  0  0  0  0  0
   27.0430    9.6330   -5.5580 O   0  0  0  0  0  0  0  0  0  0  0  0
   26.7240   11.1160  -11.3490 O   0  0  0  0  0  0  0  0  0  0  0  0
   27.3750   12.1290  -10.5950 C   0  0  1  0  0  0  0  0  0  0  0  0
   26.7790   12.3790   -9.2030 C   0  0  1  0  0  0  0  0  0  0  0  0
   24.7560   10.7030   -4.4110 C   0  0  1  0  0  0  0  0  0  0  0  0
   26.9258    6.9116   -9.6050 H   0  0  0  0  0  0  0  0  0  0  0  0
   29.1342    6.5787  -10.6267 H   0  0  0  0  0  0  0  0  0  0  0  0
   24.8321    9.6253  -10.6964 H   0  0  0  0  0  0  0  0  0  0  0  0
   31.4167   10.1017  -13.4033 H   0  0  0  0  0  0  0  0  0  0  0  0
   29.1196   11.3509  -12.7647 H   0  0  0  0  0  0  0  0  0  0  0  0
   22.9269   11.0716   -6.3898 H   0  0  0  0  0  0  0  0  0  0  0  0
   27.1325    9.1535   -8.0447 H   0  0  0  0  0  0  0  0  0  0  0  0
   28.4283   11.8381  -10.4690 H   0  0  0  0  0  0  0  0  0  0  0  0
   27.2475   13.0648  -11.1589 H   0  0  0  0  0  0  0  0  0  0  0  0
   27.5040   12.0749   -8.4337 H   0  0  0  0  0  0  0  0  0  0  0  0
   26.5503   13.4489   -9.0888 H   0  0  0  0  0  0  0  0  0  0  0  0
   25.8555   11.7924   -9.0888 H   0  0  0  0  0  0  0  0  0  0  0  0
   25.1673    9.8778   -3.8110 H   0  0  0  0  0  0  0  0  0  0  0  0
   25.2966   11.6318   -4.1764 H   0  0  0  0  0  0  0  0  0  0  0  0
   23.6889   10.8305   -4.1764 H   0  0  0  0  0  0  0  0  0  0  0  0
  1  7  1  0
  1  2  2  0
  1  4  1  0
  2  3  1  0
  3  5  1  0
  5  8  2  0
  5  6  1  0
  6 10  1  0
  6  7  2  0
  7 18  1  0
  8  9  1  0
  9 10  2  0
  4 11  1  0
 11 12  2  0
 11 16  1  0
 12 13  1  0
 13 14  2  0
 14 15  1  0
 14 21  1  0
 15 16  1  0
 15 17  2  0
 18 19  1  0
 19 20  1  0
  2 22  1  0
  3 23  1  0
  4 24  1  0
  9 25  1  0
 10 26  1  0
 13 27  1  0
 16 28  1  0
 19 29  1  1
 19 30  1  0
 20 31  1  1
 20 32  1  0
 20 33  1  0
 21 34  1  1
 21 35  1  0
 21 36  1  0
M  END
>  <Pose ID>  (265)
33

>  <Score>  (265)
-6.127252578735352

>  <smiles>  (265)
CCOc1c(Nc2ncc(C)c(=O)[nH]2)c[nH]c2nccc1-2

$$$$

     RDKit          3D

 37 40  0  0  0  0  0  0  0  0999 V2000
   27.3070    7.9540  -10.1750 C   0  0  0  0  0  0  0  0  0  0  0  0
   28.4000    7.1810  -10.5330 C   0  0  0  0  0  0  0  0  0  0  0  0
   29.3800    7.7070  -11.3660 N   0  0  0  0  0  0  0  0  0  0  0  0
   26.5090    7.2410   -9.3640 N   0  0  0  0  0  0  0  0  0  0  0  0
   29.2650    9.0080  -11.8400 C   0  0  0  0  0  0  0  0  0  0  0  0
   28.1680    9.7820  -11.4800 C   0  0  0  0  0  0  0  0  0  0  0  0
   27.1890    9.2580  -10.6480 C   0  0  0  0  0  0  0  0  0  0  0  0
   30.0690    9.7270  -12.6440 N   0  0  0  0  0  0  0  0  0  0  0  0
   29.5150   10.9720  -12.8220 C   0  0  0  0  0  0  0  0  0  0  0  0
   28.3410   10.8450  -12.0500 C   0  0  0  0  0  0  0  0  0  0  0  0
   25.9480    7.7690   -8.1610 C   0  0  0  0  0  0  0  0  0  0  0  0
   25.3110    6.8920   -7.2910 N   0  0  0  0  0  0  0  0  0  0  0  0
   24.6490    7.3820   -6.1700 C   0  0  0  0  0  0  0  0  0  0  0  0
   24.6250    8.7490   -5.9210 C   0  0  0  0  0  0  0  0  0  0  0  0
   25.2630    9.6270   -6.7910 C   0  0  0  0  0  0  0  0  0  0  0  0
   25.9510    9.1300   -7.8960 C   0  0  0  0  0  0  0  0  0  0  0  0
   23.9450    6.7200   -5.1620 C   0  0  0  0  0  0  0  0  0  0  0  0
   23.6260    7.6880   -4.2340 N   0  0  0  0  0  0  0  0  0  0  0  0
   24.0220    8.8760   -4.5620 C   0  0  0  0  0  0  0  0  0  0  0  0
   24.0000   10.1150   -3.9630 O   0  0  0  0  0  0  0  0  0  0  0  0
   23.3590    9.9580   -2.6480 C   0  0  1  0  0  0  0  0  0  0  0  0
   27.3460   11.9720  -11.9370 C   0  0  1  0  0  0  0  0  0  0  0  0
   28.4918    6.1511  -10.1578 H   0  0  0  0  0  0  0  0  0  0  0  0
   30.1921    7.1321  -11.6322 H   0  0  0  0  0  0  0  0  0  0  0  0
   26.2911    6.2677   -9.6213 H   0  0  0  0  0  0  0  0  0  0  0  0
   26.3217    9.8715  -10.3628 H   0  0  0  0  0  0  0  0  0  0  0  0
   29.8842   11.8291  -13.4044 H   0  0  0  0  0  0  0  0  0  0  0  0
   25.3291    5.8790   -7.4764 H   0  0  0  0  0  0  0  0  0  0  0  0
   25.2245   10.7108   -6.6071 H   0  0  0  0  0  0  0  0  0  0  0  0
   26.4969    9.8178   -8.5585 H   0  0  0  0  0  0  0  0  0  0  0  0
   23.6968    5.6493   -5.1178 H   0  0  0  0  0  0  0  0  0  0  0  0
   24.0996   10.1394   -1.8551 H   0  0  0  0  0  0  0  0  0  0  0  0
   22.5354   10.6810   -2.5529 H   0  0  0  0  0  0  0  0  0  0  0  0
   22.9628    8.9363   -2.5529 H   0  0  0  0  0  0  0  0  0  0  0  0
   27.1555   12.1878  -10.8753 H   0  0  0  0  0  0  0  0  0  0  0  0
   27.7516   12.8697  -12.4266 H   0  0  0  0  0  0  0  0  0  0  0  0
   26.4050   11.6808  -12.4266 H   0  0  0  0  0  0  0  0  0  0  0  0
  4  1  1  0
  4 11  1  0
  1  7  1  0
  1  2  2  0
  2  3  1  0
  3  5  1  0
  5  8  2  0
  5  6  1  0
  6 10  1  0
  6  7  2  0
  8  9  1  0
  9 10  2  0
 10 22  1  0
 11 16  2  0
 11 12  1  0
 12 13  1  0
 13 14  1  0
 13 17  2  0
 14 15  2  0
 14 19  1  0
 15 16  1  0
 17 18  1  0
 18 19  2  0
 19 20  1  0
 20 21  1  0
  2 23  1  0
  3 24  1  0
  4 25  1  0
  7 26  1  0
  9 27  1  0
 12 28  1  0
 15 29  1  0
 16 30  1  0
 17 31  1  0
 21 32  1  1
 21 33  1  0
 21 34  1  0
 22 35  1  1
 22 36  1  0
 22 37  1  0
M  END
>  <Pose ID>  (266)
44

>  <Score>  (266)
-6.1244378089904785

>  <smiles>  (266)
COc1ncc2[nH]c(Nc3c[nH]c4ncc(C)c-4c3)ccc1-2

$$$$

     RDKit          3D

 36 39  0  0  0  0  0  0  0  0999 V2000
   27.2630    7.9180  -10.1880 C   0  0  0  0  0  0  0  0  0  0  0  0
   28.3490    7.1540  -10.5820 C   0  0  0  0  0  0  0  0  0  0  0  0
   29.3300    7.7050  -11.3940 N   0  0  0  0  0  0  0  0  0  0  0  0
   26.4610    7.1790   -9.4050 N   0  0  0  0  0  0  0  0  0  0  0  0
   29.2260    9.0280  -11.8090 C   0  0  0  0  0  0  0  0  0  0  0  0
   28.1380    9.7950  -11.4130 C   0  0  0  0  0  0  0  0  0  0  0  0
   27.1570    9.2440  -10.6010 C   0  0  0  0  0  0  0  0  0  0  0  0
   30.0350    9.7760  -12.5820 N   0  0  0  0  0  0  0  0  0  0  0  0
   29.4900   11.0330  -12.7040 C   0  0  0  0  0  0  0  0  0  0  0  0
   28.3190   10.8820  -11.9340 C   0  0  0  0  0  0  0  0  0  0  0  0
   25.9090    7.6550   -8.1790 C   0  0  0  0  0  0  0  0  0  0  0  0
   25.2650    6.7470   -7.3470 N   0  0  0  0  0  0  0  0  0  0  0  0
   24.6120    7.1920   -6.2020 C   0  0  0  0  0  0  0  0  0  0  0  0
   24.6020    8.5470   -5.8920 C   0  0  0  0  0  0  0  0  0  0  0  0
   25.2460    9.4560   -6.7250 C   0  0  0  0  0  0  0  0  0  0  0  0
   25.9220    9.0040   -7.8520 C   0  0  0  0  0  0  0  0  0  0  0  0
   24.0340    6.3780   -5.4590 O   0  0  0  0  0  0  0  0  0  0  0  0
   25.3570   10.8550   -6.6490 C   0  0  0  0  0  0  0  0  0  0  0  0
   24.7920   11.7480   -7.5000 O   0  0  0  0  0  0  0  0  0  0  0  0
   25.1280   13.0020   -7.0920 N   0  0  0  0  0  0  0  0  0  0  0  0
   25.8900   12.8860   -5.9830 C   0  0  0  0  0  0  0  0  0  0  0  0
   26.0740   11.5480   -5.7200 C   0  0  0  0  0  0  0  0  0  0  0  0
   27.3360   12.0140  -11.7620 C   0  0  1  0  0  0  0  0  0  0  0  0
   28.4340    6.1086  -10.2506 H   0  0  0  0  0  0  0  0  0  0  0  0
   30.1349    7.1342  -11.6892 H   0  0  0  0  0  0  0  0  0  0  0  0
   26.2329    6.2203   -9.7046 H   0  0  0  0  0  0  0  0  0  0  0  0
   26.2975    9.8530  -10.2842 H   0  0  0  0  0  0  0  0  0  0  0  0
   29.8639   11.9115  -13.2503 H   0  0  0  0  0  0  0  0  0  0  0  0
   25.2712    5.7433   -7.5784 H   0  0  0  0  0  0  0  0  0  0  0  0
   24.0848    8.9005   -4.9878 H   0  0  0  0  0  0  0  0  0  0  0  0
   26.4688    9.7171   -8.4865 H   0  0  0  0  0  0  0  0  0  0  0  0
   26.2948   13.7197   -5.3905 H   0  0  0  0  0  0  0  0  0  0  0  0
   26.6847   11.1186   -4.9121 H   0  0  0  0  0  0  0  0  0  0  0  0
   27.1747   12.1998  -10.6899 H   0  0  0  0  0  0  0  0  0  0  0  0
   27.7365   12.9226  -12.2354 H   0  0  0  0  0  0  0  0  0  0  0  0
   26.3803   11.7448  -12.2354 H   0  0  0  0  0  0  0  0  0  0  0  0
  4  1  1  0
  4 11  1  0
  1  7  1  0
  1  2  2  0
  2  3  1  0
  3  5  1  0
  5  8  2  0
  5  6  1  0
  6 10  1  0
  6  7  2  0
  8  9  1  0
  9 10  2  0
 10 23  1  0
 11 16  2  0
 11 12  1  0
 12 13  1  0
 13 14  1  0
 13 17  2  0
 14 15  2  0
 15 16  1  0
 15 18  1  0
 18 19  1  0
 18 22  2  0
 19 20  1  0
 20 21  2  0
 21 22  1  0
  2 24  1  0
  3 25  1  0
  4 26  1  0
  7 27  1  0
  9 28  1  0
 12 29  1  0
 14 30  1  0
 16 31  1  0
 21 32  1  0
 22 33  1  0
 23 34  1  1
 23 35  1  0
 23 36  1  0
M  END
>  <Pose ID>  (267)
135

>  <Score>  (267)
-6.123985290527344

>  <smiles>  (267)
Cc1cnc2[nH]cc(Nc3cc(-c4ccno4)cc(=O)[nH]3)cc1-2

$$$$

     RDKit          3D

 33 36  0  0  0  0  0  0  0  0999 V2000
   27.3800    8.0080  -10.1490 C   0  0  0  0  0  0  0  0  0  0  0  0
   28.4320    7.1960  -10.5390 C   0  0  0  0  0  0  0  0  0  0  0  0
   29.4310    7.6990  -11.3630 N   0  0  0  0  0  0  0  0  0  0  0  0
   26.5540    7.3100   -9.3540 N   0  0  0  0  0  0  0  0  0  0  0  0
   29.3750    9.0190  -11.7960 C   0  0  0  0  0  0  0  0  0  0  0  0
   28.3190    9.8320  -11.4060 C   0  0  0  0  0  0  0  0  0  0  0  0
   27.3220    9.3310  -10.5820 C   0  0  0  0  0  0  0  0  0  0  0  0
   30.2080    9.7210  -12.5850 N   0  0  0  0  0  0  0  0  0  0  0  0
   29.7130   10.9980  -12.7210 C   0  0  0  0  0  0  0  0  0  0  0  0
   28.5390   10.9030  -11.9440 C   0  0  0  0  0  0  0  0  0  0  0  0
   26.0260    7.8270   -8.1310 C   0  0  0  0  0  0  0  0  0  0  0  0
   25.3530    6.9560   -7.2830 N   0  0  0  0  0  0  0  0  0  0  0  0
   24.7230    7.4420   -6.1440 C   0  0  0  0  0  0  0  0  0  0  0  0
   24.7660    8.8010   -5.8530 C   0  0  0  0  0  0  0  0  0  0  0  0
   25.4400    9.6730   -6.7010 C   0  0  0  0  0  0  0  0  0  0  0  0
   26.0950    9.1780   -7.8250 C   0  0  0  0  0  0  0  0  0  0  0  0
   23.9930    6.7840   -5.1490 C   0  0  0  0  0  0  0  0  0  0  0  0
   23.7280    7.7380   -4.1920 N   0  0  0  0  0  0  0  0  0  0  0  0
   24.1780    8.9140   -4.4860 C   0  0  0  0  0  0  0  0  0  0  0  0
   30.2710   12.1710  -13.4880 C   0  0  1  0  0  0  0  0  0  0  0  0
   28.4766    6.1518  -10.1960 H   0  0  0  0  0  0  0  0  0  0  0  0
   30.2128    7.0943  -11.6530 H   0  0  0  0  0  0  0  0  0  0  0  0
   26.2881    6.3566   -9.6390 H   0  0  0  0  0  0  0  0  0  0  0  0
   26.4875    9.9767  -10.2711 H   0  0  0  0  0  0  0  0  0  0  0  0
   27.8542   11.7561  -11.8293 H   0  0  0  0  0  0  0  0  0  0  0  0
   25.3211    5.9494   -7.4989 H   0  0  0  0  0  0  0  0  0  0  0  0
   25.4555   10.7513   -6.4841 H   0  0  0  0  0  0  0  0  0  0  0  0
   26.6680    9.8591   -8.4713 H   0  0  0  0  0  0  0  0  0  0  0  0
   23.6932    5.7257   -5.1340 H   0  0  0  0  0  0  0  0  0  0  0  0
   24.1360    9.8149   -3.8563 H   0  0  0  0  0  0  0  0  0  0  0  0
   30.6331   12.9323  -12.7814 H   0  0  0  0  0  0  0  0  0  0  0  0
   31.1044   11.8322  -14.1209 H   0  0  0  0  0  0  0  0  0  0  0  0
   29.4823   12.6039  -14.1209 H   0  0  0  0  0  0  0  0  0  0  0  0
  4  1  1  0
  4 11  1  0
  1  7  1  0
  1  2  2  0
  2  3  1  0
  3  5  1  0
  5  8  2  0
  5  6  1  0
  6 10  1  0
  6  7  2  0
  8  9  1  0
  9 20  1  0
  9 10  2  0
 11 16  2  0
 11 12  1  0
 12 13  1  0
 13 14  1  0
 13 17  2  0
 14 15  2  0
 14 19  1  0
 15 16  1  0
 17 18  1  0
 18 19  2  0
  2 21  1  0
  3 22  1  0
  4 23  1  0
  7 24  1  0
 10 25  1  0
 12 26  1  0
 15 27  1  0
 16 28  1  0
 17 29  1  0
 19 30  1  0
 20 31  1  1
 20 32  1  0
 20 33  1  0
M  END
>  <Pose ID>  (268)
39

>  <Score>  (268)
-6.123778820037842

>  <smiles>  (268)
Cc1cc2cc(Nc3ccc4cncc-4[nH]3)c[nH]c-2n1

$$$$

     RDKit          3D

 35 38  0  0  0  0  0  0  0  0999 V2000
   27.2910    7.8680  -10.2020 C   0  0  0  0  0  0  0  0  0  0  0  0
   28.4200    7.1360  -10.5340 C   0  0  0  0  0  0  0  0  0  0  0  0
   29.4040    7.7030  -11.3350 N   0  0  0  0  0  0  0  0  0  0  0  0
   26.4940    7.1220   -9.4210 N   0  0  0  0  0  0  0  0  0  0  0  0
   29.2600    9.0050  -11.7990 C   0  0  0  0  0  0  0  0  0  0  0  0
   28.1280    9.7380  -11.4650 C   0  0  0  0  0  0  0  0  0  0  0  0
   27.1440    9.1730  -10.6670 C   0  0  0  0  0  0  0  0  0  0  0  0
   30.0620    9.7570  -12.5700 N   0  0  0  0  0  0  0  0  0  0  0  0
   29.4830   10.9500  -12.7410 C   0  0  0  0  0  0  0  0  0  0  0  0
   28.2680   10.9300  -12.0660 C   0  0  0  0  0  0  0  0  0  0  0  0
   25.8820    7.6170   -8.2300 C   0  0  0  0  0  0  0  0  0  0  0  0
   25.2480    6.7110   -7.3870 N   0  0  0  0  0  0  0  0  0  0  0  0
   24.5380    7.1660   -6.2830 C   0  0  0  0  0  0  0  0  0  0  0  0
   24.4630    8.5310   -6.0200 C   0  0  0  0  0  0  0  0  0  0  0  0
   25.0970    9.4380   -6.8640 C   0  0  0  0  0  0  0  0  0  0  0  0
   25.8300    8.9760   -7.9520 C   0  0  0  0  0  0  0  0  0  0  0  0
   23.9730    6.3550   -5.5290 O   0  0  0  0  0  0  0  0  0  0  0  0
   29.8700   12.0870  -13.4410 C   0  0  0  0  0  0  0  0  0  0  0  0
   29.0420   13.2040  -13.4660 N   0  0  0  0  0  0  0  0  0  0  0  0
   27.8280   13.1830  -12.7910 C   0  0  0  0  0  0  0  0  0  0  0  0
   27.4400   12.0470  -12.0910 C   0  0  0  0  0  0  0  0  0  0  0  0
   23.6950    9.0270   -4.8200 C   0  0  1  0  0  0  0  0  0  0  0  0
   28.5372    6.1068  -10.1637 H   0  0  0  0  0  0  0  0  0  0  0  0
   30.2411    7.1575  -11.5851 H   0  0  0  0  0  0  0  0  0  0  0  0
   26.3153    6.1451   -9.6942 H   0  0  0  0  0  0  0  0  0  0  0  0
   26.2488    9.7546  -10.4017 H   0  0  0  0  0  0  0  0  0  0  0  0
   25.3049    5.7011   -7.5814 H   0  0  0  0  0  0  0  0  0  0  0  0
   25.0185   10.5181   -6.6710 H   0  0  0  0  0  0  0  0  0  0  0  0
   26.3694    9.6887   -8.5932 H   0  0  0  0  0  0  0  0  0  0  0  0
   30.8314   12.1031  -13.9753 H   0  0  0  0  0  0  0  0  0  0  0  0
   27.1731   14.0666  -12.8106 H   0  0  0  0  0  0  0  0  0  0  0  0
   26.4785   12.0313  -11.5570 H   0  0  0  0  0  0  0  0  0  0  0  0
   24.2013    8.7000   -3.8998 H   0  0  0  0  0  0  0  0  0  0  0  0
   23.6491   10.1258   -4.8426 H   0  0  0  0  0  0  0  0  0  0  0  0
   22.6746    8.6169   -4.8426 H   0  0  0  0  0  0  0  0  0  0  0  0
  1  7  1  0
  1  2  2  0
  1  4  1  0
  2  3  1  0
  3  5  1  0
  5  8  2  0
  5  6  1  0
  6 10  1  0
  6  7  2  0
  8  9  1  0
  9 18  1  0
  9 10  2  0
 10 21  1  0
 18 19  2  0
 19 20  1  0
 20 21  2  0
  4 11  1  0
 11 16  2  0
 11 12  1  0
 12 13  1  0
 13 14  1  0
 13 17  2  0
 14 15  2  0
 14 22  1  0
 15 16  1  0
  2 23  1  0
  3 24  1  0
  4 25  1  0
  7 26  1  0
 12 27  1  0
 15 28  1  0
 16 29  1  0
 18 30  1  0
 20 31  1  0
 21 32  1  0
 22 33  1  1
 22 34  1  0
 22 35  1  0
M  END
>  <Pose ID>  (269)
115

>  <Score>  (269)
-6.121760368347168

>  <smiles>  (269)
Cc1ccc(Nc2c[nH]c3nc4cnccc4c-3c2)[nH]c1=O

$$$$

     RDKit          3D

 39 42  0  0  0  0  0  0  0  0999 V2000
   27.3770    7.9350  -10.1850 C   0  0  0  0  0  0  0  0  0  0  0  0
   28.4950    7.1790  -10.4960 C   0  0  0  0  0  0  0  0  0  0  0  0
   29.4820    7.7050  -11.3220 N   0  0  0  0  0  0  0  0  0  0  0  0
   26.5770    7.2270   -9.3730 N   0  0  0  0  0  0  0  0  0  0  0  0
   29.3490    8.9890  -11.8320 C   0  0  0  0  0  0  0  0  0  0  0  0
   28.2280    9.7470  -11.5200 C   0  0  0  0  0  0  0  0  0  0  0  0
   27.2420    9.2240  -10.6960 C   0  0  0  0  0  0  0  0  0  0  0  0
   30.1560    9.7030  -12.6380 N   0  0  0  0  0  0  0  0  0  0  0  0
   29.5790   10.9330  -12.8620 C   0  0  0  0  0  0  0  0  0  0  0  0
   28.3900   10.7990  -12.1140 C   0  0  0  0  0  0  0  0  0  0  0  0
   25.9760    7.7730   -8.1970 C   0  0  0  0  0  0  0  0  0  0  0  0
   25.3380    6.9060   -7.3190 N   0  0  0  0  0  0  0  0  0  0  0  0
   24.6400    7.4110   -6.2270 C   0  0  0  0  0  0  0  0  0  0  0  0
   24.5810    8.7820   -6.0160 C   0  0  0  0  0  0  0  0  0  0  0  0
   25.2200    9.6510   -6.8950 C   0  0  0  0  0  0  0  0  0  0  0  0
   25.9420    9.1410   -7.9700 C   0  0  0  0  0  0  0  0  0  0  0  0
   23.9280    6.7600   -5.2160 C   0  0  0  0  0  0  0  0  0  0  0  0
   23.5670    7.7450   -4.3240 N   0  0  0  0  0  0  0  0  0  0  0  0
   23.9430    8.9320   -4.6730 C   0  0  0  0  0  0  0  0  0  0  0  0
   23.7730   10.2070   -3.8870 C   0  0  1  0  0  0  0  0  0  0  0  0
   22.6380   10.9930   -4.4240 C   0  0  1  0  0  0  0  0  0  0  0  0
   25.1280   11.1420   -6.6840 C   0  0  1  0  0  0  0  0  0  0  0  0
   28.6021    6.1625  -10.0895 H   0  0  0  0  0  0  0  0  0  0  0  0
   30.3121    7.1417  -11.5555 H   0  0  0  0  0  0  0  0  0  0  0  0
   26.3869    6.2425   -9.6087 H   0  0  0  0  0  0  0  0  0  0  0  0
   26.3556    9.8258  -10.4467 H   0  0  0  0  0  0  0  0  0  0  0  0
   29.9433   11.7829  -13.4578 H   0  0  0  0  0  0  0  0  0  0  0  0
   27.6441   11.6062  -12.0690 H   0  0  0  0  0  0  0  0  0  0  0  0
   25.3818    5.8891   -7.4766 H   0  0  0  0  0  0  0  0  0  0  0  0
   26.4860    9.8231   -8.6400 H   0  0  0  0  0  0  0  0  0  0  0  0
   23.7030    5.6855   -5.1471 H   0  0  0  0  0  0  0  0  0  0  0  0
   23.5775    9.9605   -2.8330 H   0  0  0  0  0  0  0  0  0  0  0  0
   24.6932   10.8041   -3.9692 H   0  0  0  0  0  0  0  0  0  0  0  0
   22.0480   11.4016   -3.5904 H   0  0  0  0  0  0  0  0  0  0  0  0
   23.0229   11.8189   -5.0402 H   0  0  0  0  0  0  0  0  0  0  0  0
   22.0003   10.3422   -5.0402 H   0  0  0  0  0  0  0  0  0  0  0  0
   25.1146   11.3596   -5.6058 H   0  0  0  0  0  0  0  0  0  0  0  0
   25.9976   11.6321   -7.1462 H   0  0  0  0  0  0  0  0  0  0  0  0
   24.2047   11.5214   -7.1462 H   0  0  0  0  0  0  0  0  0  0  0  0
 11  4  1  0
 11 16  2  0
 11 12  1  0
 12 13  1  0
 13 14  1  0
 13 17  2  0
 14 15  2  0
 14 19  1  0
 15 16  1  0
 15 22  1  0
 17 18  1  0
 18 19  2  0
 19 20  1  0
  4  1  1  0
  1  7  1  0
  1  2  2  0
  2  3  1  0
  3  5  1  0
  5  8  2  0
  5  6  1  0
  6 10  1  0
  6  7  2  0
  8  9  1  0
  9 10  2  0
 20 21  1  0
  2 23  1  0
  3 24  1  0
  4 25  1  0
  7 26  1  0
  9 27  1  0
 10 28  1  0
 12 29  1  0
 16 30  1  0
 17 31  1  0
 20 32  1  1
 20 33  1  0
 21 34  1  1
 21 35  1  0
 21 36  1  0
 22 37  1  1
 22 38  1  0
 22 39  1  0
M  END
>  <Pose ID>  (270)
76

>  <Score>  (270)
-6.121315002441406

>  <smiles>  (270)
CCc1ncc2[nH]c(Nc3c[nH]c4nccc-4c3)cc(C)c1-2

$$$$

     RDKit          3D

 34 37  0  0  0  0  0  0  0  0999 V2000
   27.0260    8.4610   -9.4870 C   0  0  0  0  0  0  0  0  0  0  0  0
   27.1780    7.3630   -8.6470 N   0  0  0  0  0  0  0  0  0  0  0  0
   26.3280    7.1990   -7.5590 C   0  0  0  0  0  0  0  0  0  0  0  0
   25.3260    8.1310   -7.3100 C   0  0  0  0  0  0  0  0  0  0  0  0
   25.1720    9.2270   -8.1530 N   0  0  0  0  0  0  0  0  0  0  0  0
   26.0240    9.3930   -9.2400 C   0  0  0  0  0  0  0  0  0  0  0  0
   24.3910    8.1230   -6.2820 C   0  0  0  0  0  0  0  0  0  0  0  0
   24.3340    7.0900   -5.3550 C   0  0  0  0  0  0  0  0  0  0  0  0
   23.4790    9.1700   -6.2130 C   0  0  0  0  0  0  0  0  0  0  0  0
   23.3670    7.1000   -4.3600 N   0  0  0  0  0  0  0  0  0  0  0  0
   22.4540    8.1470   -4.2900 C   0  0  0  0  0  0  0  0  0  0  0  0
   23.9290    9.9670   -7.4580 N   0  0  0  0  0  0  0  0  0  0  0  0
   22.5100    9.1820   -5.2160 C   0  0  0  0  0  0  0  0  0  0  0  0
   27.8850    8.6270  -10.5870 C   0  0  0  0  0  0  0  0  0  0  0  0
   28.7440    9.7140  -10.7120 O   0  0  0  0  0  0  0  0  0  0  0  0
   28.0170    7.8010  -11.6650 N   0  0  0  0  0  0  0  0  0  0  0  0
   29.3690    9.4810  -11.9130 C   0  0  0  0  0  0  0  0  0  0  0  0
   28.9320    8.3120  -12.5190 C   0  0  0  0  0  0  0  0  0  0  0  0
   21.4020    8.1580   -3.2090 C   0  0  1  0  0  0  0  0  0  0  0  0
   22.1480    8.3740   -1.8630 C   0  0  1  0  0  0  0  0  0  0  0  0
   30.4130   10.3940  -12.5070 C   0  0  1  0  0  0  0  0  0  0  0  0
   26.4481    6.3309   -6.8942 H   0  0  0  0  0  0  0  0  0  0  0  0
   25.9051   10.2617   -9.9043 H   0  0  0  0  0  0  0  0  0  0  0  0
   25.0568    6.2626   -5.4099 H   0  0  0  0  0  0  0  0  0  0  0  0
   21.7881   10.0101   -5.1601 H   0  0  0  0  0  0  0  0  0  0  0  0
   29.2582    7.8931  -13.4824 H   0  0  0  0  0  0  0  0  0  0  0  0
   20.6883    8.9769   -3.3827 H   0  0  0  0  0  0  0  0  0  0  0  0
   20.8337    7.2162   -3.2000 H   0  0  0  0  0  0  0  0  0  0  0  0
   21.4612    8.1751   -1.0271 H   0  0  0  0  0  0  0  0  0  0  0  0
   23.0052    7.6872   -1.8046 H   0  0  0  0  0  0  0  0  0  0  0  0
   22.5056    9.4126   -1.8046 H   0  0  0  0  0  0  0  0  0  0  0  0
   30.9741   10.8847  -11.6980 H   0  0  0  0  0  0  0  0  0  0  0  0
   31.1043    9.8054  -13.1280 H   0  0  0  0  0  0  0  0  0  0  0  0
   29.9218   11.1576  -13.1280 H   0  0  0  0  0  0  0  0  0  0  0  0
  1 14  1  0
  1  6  2  0
  1  2  1  0
  2  3  2  0
  3  4  1  0
  4  5  1  0
  4  7  2  0
  5  6  1  0
  5 12  1  0
  7  9  1  0
  7  8  1  0
  8 10  2  0
  9 12  2  0
  9 13  1  0
 10 11  1  0
 11 13  2  0
 11 19  1  0
 14 16  2  0
 14 15  1  0
 15 17  1  0
 16 18  1  0
 17 18  2  0
 17 21  1  0
 19 20  1  0
  3 22  1  0
  6 23  1  0
  8 24  1  0
 13 25  1  0
 18 26  1  0
 19 27  1  6
 19 28  1  0
 20 29  1  1
 20 30  1  0
 20 31  1  0
 21 32  1  1
 21 33  1  0
 21 34  1  0
M  END
>  <Pose ID>  (271)
75

>  <Score>  (271)
-6.112239837646484

>  <smiles>  (271)
CCc1cc2nn3cc(-c4ncc(C)o4)ncc3c2cn1

$$$$

     RDKit          3D

 37 40  0  0  0  0  0  0  0  0999 V2000
   27.8760    7.8960  -10.3000 C   0  0  0  0  0  0  0  0  0  0  0  0
   28.7990    7.1460  -11.0180 C   0  0  0  0  0  0  0  0  0  0  0  0
   29.6670    7.7750  -11.9020 N   0  0  0  0  0  0  0  0  0  0  0  0
   29.6140    9.1530  -12.0690 C   0  0  0  0  0  0  0  0  0  0  0  0
   27.0430    7.0910   -9.4120 O   0  0  0  0  0  0  0  0  0  0  0  0
   28.6890    9.9050  -11.3500 C   0  0  0  0  0  0  0  0  0  0  0  0
   27.8220    9.2750  -10.4670 C   0  0  0  0  0  0  0  0  0  0  0  0
   30.3390    9.9780  -12.8520 N   0  0  0  0  0  0  0  0  0  0  0  0
   29.8960   11.2680  -12.6640 C   0  0  0  0  0  0  0  0  0  0  0  0
   28.8730   11.0520  -11.7130 C   0  0  0  0  0  0  0  0  0  0  0  0
   26.2540    7.6160   -8.3810 C   0  0  0  0  0  0  0  0  0  0  0  0
   25.4860    8.7300   -8.6840 N   0  0  0  0  0  0  0  0  0  0  0  0
   24.8510    9.0800   -7.5880 N   0  0  0  0  0  0  0  0  0  0  0  0
   25.0990    8.2730   -6.4850 C   0  0  0  0  0  0  0  0  0  0  0  0
   25.9880    7.3450   -7.0520 C   0  0  0  0  0  0  0  0  0  0  0  0
   23.9750   10.1540   -7.4800 C   0  0  0  0  0  0  0  0  0  0  0  0
   23.3480   10.4220   -6.2700 C   0  0  0  0  0  0  0  0  0  0  0  0
   23.5980    9.6140   -5.1660 C   0  0  0  0  0  0  0  0  0  0  0  0
   24.4730    8.5400   -5.2730 N   0  0  0  0  0  0  0  0  0  0  0  0
   30.3720   12.5530  -13.2940 C   0  0  1  0  0  0  0  0  0  0  0  0
   28.0450   12.1910  -11.1730 C   0  0  1  0  0  0  0  0  0  0  0  0
   23.7050   11.0300   -8.6780 C   0  0  1  0  0  0  0  0  0  0  0  0
   28.8426    6.0547  -10.8867 H   0  0  0  0  0  0  0  0  0  0  0  0
   30.3509    7.2185  -12.4344 H   0  0  0  0  0  0  0  0  0  0  0  0
   27.0909    9.8684   -9.8984 H   0  0  0  0  0  0  0  0  0  0  0  0
   26.4232    6.4984   -6.5008 H   0  0  0  0  0  0  0  0  0  0  0  0
   22.6549   11.2719   -6.1850 H   0  0  0  0  0  0  0  0  0  0  0  0
   23.1024    9.8254   -4.2070 H   0  0  0  0  0  0  0  0  0  0  0  0
   30.6382   13.2716  -12.5049 H   0  0  0  0  0  0  0  0  0  0  0  0
   31.2547   12.3503  -13.9183 H   0  0  0  0  0  0  0  0  0  0  0  0
   29.5703   12.9743  -13.9183 H   0  0  0  0  0  0  0  0  0  0  0  0
   28.0620   12.1676  -10.0734 H   0  0  0  0  0  0  0  0  0  0  0  0
   28.4610   13.1462  -11.5259 H   0  0  0  0  0  0  0  0  0  0  0  0
   27.0080   12.0900  -11.5259 H   0  0  0  0  0  0  0  0  0  0  0  0
   23.3968   12.0300   -8.3390 H   0  0  0  0  0  0  0  0  0  0  0  0
   24.6190   11.1139   -9.2843 H   0  0  0  0  0  0  0  0  0  0  0  0
   22.9024   10.5848   -9.2843 H   0  0  0  0  0  0  0  0  0  0  0  0
  1  2  2  0
  1  7  1  0
  1  5  1  0
  2  3  1  0
  3  4  1  0
  4  8  2  0
  4  6  1  0
  6 10  1  0
  6  7  2  0
  8  9  1  0
  9 20  1  0
  9 10  2  0
 10 21  1  0
  5 11  1  0
 11 12  2  0
 11 15  1  0
 12 13  1  0
 13 16  1  0
 13 14  1  0
 14 15  2  0
 14 19  1  0
 16 22  1  0
 16 17  2  0
 17 18  1  0
 18 19  2  0
  2 23  1  0
  3 24  1  0
  7 25  1  0
 15 26  1  0
 17 27  1  0
 18 28  1  0
 20 29  1  1
 20 30  1  0
 20 31  1  0
 21 32  1  1
 21 33  1  0
 21 34  1  0
 22 35  1  1
 22 36  1  0
 22 37  1  0
M  END
>  <Pose ID>  (272)
371

>  <Score>  (272)
-6.111036777496338

>  <smiles>  (272)
Cc1nc2[nH]cc(Oc3cc4nccc(C)n4n3)cc-2c1C

$$$$

     RDKit          3D

 34 37  0  0  0  0  0  0  0  0999 V2000
   27.9030    7.7870  -10.3680 C   0  0  0  0  0  0  0  0  0  0  0  0
   28.8950    7.0950  -11.0520 C   0  0  0  0  0  0  0  0  0  0  0  0
   29.7620    7.7780  -11.8960 N   0  0  0  0  0  0  0  0  0  0  0  0
   29.6400    9.1530  -12.0560 C   0  0  0  0  0  0  0  0  0  0  0  0
   27.0830    6.9290   -9.5180 O   0  0  0  0  0  0  0  0  0  0  0  0
   28.6460    9.8470  -11.3720 C   0  0  0  0  0  0  0  0  0  0  0  0
   27.7810    9.1620  -10.5270 C   0  0  0  0  0  0  0  0  0  0  0  0
   30.3460   10.0220  -12.8050 N   0  0  0  0  0  0  0  0  0  0  0  0
   29.8280   11.2850  -12.6260 C   0  0  0  0  0  0  0  0  0  0  0  0
   28.7820   11.0060  -11.7200 C   0  0  0  0  0  0  0  0  0  0  0  0
   26.2250    7.4040   -8.5180 C   0  0  0  0  0  0  0  0  0  0  0  0
   25.4100    8.4740   -8.8410 N   0  0  0  0  0  0  0  0  0  0  0  0
   24.7040    8.7820   -7.7460 N   0  0  0  0  0  0  0  0  0  0  0  0
   25.0010    7.9300   -6.6910 C   0  0  0  0  0  0  0  0  0  0  0  0
   25.9230    7.1070   -7.2020 C   0  0  0  0  0  0  0  0  0  0  0  0
   23.7560    9.7860   -7.5820 C   0  0  0  0  0  0  0  0  0  0  0  0
   23.1080    9.9370   -6.3630 N   0  0  0  0  0  0  0  0  0  0  0  0
   23.4050    9.0840   -5.3060 C   0  0  0  0  0  0  0  0  0  0  0  0
   24.3530    8.0800   -5.4700 C   0  0  0  0  0  0  0  0  0  0  0  0
   30.2570   12.5990  -13.2300 C   0  0  1  0  0  0  0  0  0  0  0  0
   24.6780    7.1550   -4.3240 C   0  0  1  0  0  0  0  0  0  0  0  0
   28.9939    6.0068  -10.9253 H   0  0  0  0  0  0  0  0  0  0  0  0
   30.4963    7.2644  -12.4039 H   0  0  0  0  0  0  0  0  0  0  0  0
   26.9977    9.7098   -9.9826 H   0  0  0  0  0  0  0  0  0  0  0  0
   28.1194   11.8000  -11.3451 H   0  0  0  0  0  0  0  0  0  0  0  0
   26.3890    6.2855   -6.6382 H   0  0  0  0  0  0  0  0  0  0  0  0
   23.5193   10.4607   -8.4179 H   0  0  0  0  0  0  0  0  0  0  0  0
   22.8906    9.2032   -4.3410 H   0  0  0  0  0  0  0  0  0  0  0  0
   30.4902   13.3131  -12.4265 H   0  0  0  0  0  0  0  0  0  0  0  0
   31.1506   12.4423  -13.8520 H   0  0  0  0  0  0  0  0  0  0  0  0
   29.4430   12.9998  -13.8520 H   0  0  0  0  0  0  0  0  0  0  0  0
   24.4958    7.6736   -3.3712 H   0  0  0  0  0  0  0  0  0  0  0  0
   24.0403    6.2606   -4.3825 H   0  0  0  0  0  0  0  0  0  0  0  0
   25.7350    6.8561   -4.3825 H   0  0  0  0  0  0  0  0  0  0  0  0
  1  2  2  0
  1  7  1  0
  1  5  1  0
  2  3  1  0
  3  4  1  0
  4  8  2  0
  4  6  1  0
  6 10  1  0
  6  7  2  0
  8  9  1  0
  9 20  1  0
  9 10  2  0
  5 11  1  0
 11 12  2  0
 11 15  1  0
 12 13  1  0
 13 16  1  0
 13 14  1  0
 14 15  2  0
 14 19  1  0
 16 17  2  0
 17 18  1  0
 18 19  2  0
 19 21  1  0
  2 22  1  0
  3 23  1  0
  7 24  1  0
 10 25  1  0
 15 26  1  0
 16 27  1  0
 18 28  1  0
 20 29  1  1
 20 30  1  0
 20 31  1  0
 21 32  1  1
 21 33  1  0
 21 34  1  0
M  END
>  <Pose ID>  (273)
277

>  <Score>  (273)
-6.109938144683838

>  <smiles>  (273)
Cc1cc2cc(Oc3cc4c(C)cncn4n3)c[nH]c-2n1

$$$$

     RDKit          3D

 44 47  0  0  0  0  0  0  0  0999 V2000
   28.7690    9.4700  -12.0940 C   0  0  0  0  0  0  0  0  0  0  0  0
   29.4900    8.3330  -11.7790 C   0  0  0  0  0  0  0  0  0  0  0  0
   29.0080    7.4520  -10.8170 N   0  0  0  0  0  0  0  0  0  0  0  0
   27.8180    7.7250  -10.1560 C   0  0  0  0  0  0  0  0  0  0  0  0
   27.5850    9.7600  -11.4200 C   0  0  0  0  0  0  0  0  0  0  0  0
   27.1050    8.8790  -10.4560 C   0  0  0  0  0  0  0  0  0  0  0  0
   27.1630    7.0370   -9.2010 N   0  0  0  0  0  0  0  0  0  0  0  0
   26.0210    7.7280   -8.8630 C   0  0  0  0  0  0  0  0  0  0  0  0
   26.1350    8.8460   -9.7200 C   0  0  0  0  0  0  0  0  0  0  0  0
   24.9690    7.5760   -7.9970 N   0  0  0  0  0  0  0  0  0  0  0  0
   24.7390    8.3850   -6.8740 C   0  0  0  0  0  0  0  0  0  0  0  0
   23.9970    9.5490   -7.0160 C   0  0  0  0  0  0  0  0  0  0  0  0
   23.7610   10.3620   -5.9150 C   0  0  0  0  0  0  0  0  0  0  0  0
   24.2690   10.0110   -4.6700 C   0  0  0  0  0  0  0  0  0  0  0  0
   25.0120    8.8450   -4.5280 N   0  0  0  0  0  0  0  0  0  0  0  0
   25.2460    8.0320   -5.6300 C   0  0  0  0  0  0  0  0  0  0  0  0
   23.0120   11.4440   -6.3070 N   0  0  0  0  0  0  0  0  0  0  0  0
   23.5650   12.8760   -6.1060 C   0  0  1  0  0  0  0  0  0  0  0  0
   22.9280   13.3740   -4.8380 C   0  0  1  0  0  0  0  0  0  0  0  0
   23.1900   14.8460   -4.6450 C   0  0  1  0  0  0  0  0  0  0  0  0
   24.6730   15.1280   -4.6130 C   0  0  1  0  0  0  0  0  0  0  0  0
   25.2580   14.7940   -5.9850 C   0  0  1  0  0  0  0  0  0  0  0  0
   25.0140   13.3560   -6.3510 C   0  0  1  0  0  0  0  0  0  0  0  0
   29.1319   10.1484  -12.8802 H   0  0  0  0  0  0  0  0  0  0  0  0
   30.4428    8.1258  -12.2882 H   0  0  0  0  0  0  0  0  0  0  0  0
   29.5348    6.5954  -10.5945 H   0  0  0  0  0  0  0  0  0  0  0  0
   27.0313   10.6825  -11.6491 H   0  0  0  0  0  0  0  0  0  0  0  0
   25.3830    9.6488   -9.7223 H   0  0  0  0  0  0  0  0  0  0  0  0
   24.3009    6.8147   -8.1839 H   0  0  0  0  0  0  0  0  0  0  0  0
   23.5954    9.8280   -8.0013 H   0  0  0  0  0  0  0  0  0  0  0  0
   24.0833   10.6552   -3.7979 H   0  0  0  0  0  0  0  0  0  0  0  0
   25.8329    7.1085   -5.5173 H   0  0  0  0  0  0  0  0  0  0  0  0
   22.0851   11.3034   -6.7335 H   0  0  0  0  0  0  0  0  0  0  0  0
   23.2970   13.3612   -7.0561 H   0  0  0  0  0  0  0  0  0  0  0  0
   21.8422   13.2055   -4.8904 H   0  0  0  0  0  0  0  0  0  0  0  0
   23.3619   12.8260   -3.9886 H   0  0  0  0  0  0  0  0  0  0  0  0
   22.7346   15.4051   -5.4757 H   0  0  0  0  0  0  0  0  0  0  0  0
   22.7513   15.1590   -3.6861 H   0  0  0  0  0  0  0  0  0  0  0  0
   24.8442   16.1904   -4.3849 H   0  0  0  0  0  0  0  0  0  0  0  0
   25.1570   14.5167   -3.8371 H   0  0  0  0  0  0  0  0  0  0  0  0
   24.7883   15.4403   -6.7411 H   0  0  0  0  0  0  0  0  0  0  0  0
   26.3445   14.9619   -5.9479 H   0  0  0  0  0  0  0  0  0  0  0  0
   25.6910   12.7283   -5.7529 H   0  0  0  0  0  0  0  0  0  0  0  0
   25.1965   13.2701   -7.4323 H   0  0  0  0  0  0  0  0  0  0  0  0
 11 10  1  0
 11 12  2  0
 11 16  1  0
 12 13  1  0
 13 17  1  0
 13 14  2  0
 14 15  1  0
 15 16  2  0
 10  8  1  0
  1  2  2  0
  1  5  1  0
  2  3  1  0
  3  4  1  0
  4  6  1  0
  4  7  2  0
  5  6  2  0
  6  9  1  0
  7  8  1  0
  8  9  2  0
 17 18  1  0
 18 23  1  0
 18 19  1  0
 19 20  1  0
 20 21  1  0
 21 22  1  0
 22 23  1  0
  1 24  1  0
  2 25  1  0
  3 26  1  0
  5 27  1  0
  9 28  1  0
 10 29  1  0
 12 30  1  0
 14 31  1  0
 16 32  1  0
 17 33  1  0
 18 34  1  6
 19 35  1  6
 19 36  1  0
 20 37  1  6
 20 38  1  0
 21 39  1  1
 21 40  1  0
 22 41  1  6
 22 42  1  0
 23 43  1  1
 23 44  1  0
M  END
>  <Pose ID>  (274)
201

>  <Score>  (274)
-6.102072238922119

>  <smiles>  (274)
c1c[nH]c2nc(Nc3cncc(NC4CCCCC4)c3)cc-2c1

$$$$

     RDKit          3D

 38 41  0  0  0  0  0  0  0  0999 V2000
   27.3200    7.8900  -10.1990 C   0  0  0  0  0  0  0  0  0  0  0  0
   28.4360    7.1450  -10.5420 C   0  0  0  0  0  0  0  0  0  0  0  0
   29.4280    7.7040  -11.3350 N   0  0  0  0  0  0  0  0  0  0  0  0
   26.5090    7.1480   -9.4270 N   0  0  0  0  0  0  0  0  0  0  0  0
   29.3070    9.0150  -11.7830 C   0  0  0  0  0  0  0  0  0  0  0  0
   28.1870    9.7610  -11.4400 C   0  0  0  0  0  0  0  0  0  0  0  0
   27.1930    9.2020  -10.6470 C   0  0  0  0  0  0  0  0  0  0  0  0
   30.1210    9.7630  -12.5450 N   0  0  0  0  0  0  0  0  0  0  0  0
   29.5970   10.9100  -12.6930 C   0  0  0  0  0  0  0  0  0  0  0  0
   28.3740   10.9170  -12.0340 C   0  0  0  0  0  0  0  0  0  0  0  0
   25.9060    7.6380   -8.2300 C   0  0  0  0  0  0  0  0  0  0  0  0
   25.2570    6.7320   -7.3990 N   0  0  0  0  0  0  0  0  0  0  0  0
   24.5570    7.1850   -6.2870 C   0  0  0  0  0  0  0  0  0  0  0  0
   24.5030    8.5460   -6.0090 C   0  0  0  0  0  0  0  0  0  0  0  0
   25.1520    9.4530   -6.8400 C   0  0  0  0  0  0  0  0  0  0  0  0
   25.8770    8.9930   -7.9360 C   0  0  0  0  0  0  0  0  0  0  0  0
   23.9770    6.3740   -5.5440 O   0  0  0  0  0  0  0  0  0  0  0  0
   30.0210   12.0390  -13.3840 C   0  0  0  0  0  0  0  0  0  0  0  0
   29.2220   13.1760  -13.4150 C   0  0  0  0  0  0  0  0  0  0  0  0
   27.9990   13.1820  -12.7560 C   0  0  0  0  0  0  0  0  0  0  0  0
   27.5740   12.0540  -12.0650 N   0  0  0  0  0  0  0  0  0  0  0  0
   23.7430    9.0400   -4.8030 C   0  0  1  0  0  0  0  0  0  0  0  0
   22.3070    8.5450   -4.6830 C   0  0  1  0  0  0  0  0  0  0  0  0
   28.5361    6.1092  -10.1855 H   0  0  0  0  0  0  0  0  0  0  0  0
   30.2554    7.1470  -11.5923 H   0  0  0  0  0  0  0  0  0  0  0  0
   26.3128    6.1781   -9.7129 H   0  0  0  0  0  0  0  0  0  0  0  0
   26.3075    9.7946  -10.3736 H   0  0  0  0  0  0  0  0  0  0  0  0
   25.2949    5.7241   -7.6076 H   0  0  0  0  0  0  0  0  0  0  0  0
   25.0926   10.5315   -6.6318 H   0  0  0  0  0  0  0  0  0  0  0  0
   26.4271    9.7047   -8.5691 H   0  0  0  0  0  0  0  0  0  0  0  0
   30.9890   12.0327  -13.9064 H   0  0  0  0  0  0  0  0  0  0  0  0
   29.5577   14.0701  -13.9608 H   0  0  0  0  0  0  0  0  0  0  0  0
   27.3661   14.0813  -12.7813 H   0  0  0  0  0  0  0  0  0  0  0  0
   24.2885    8.7179   -3.9037 H   0  0  0  0  0  0  0  0  0  0  0  0
   23.6769   10.1323   -4.9150 H   0  0  0  0  0  0  0  0  0  0  0  0
   22.0387    8.4525   -3.6203 H   0  0  0  0  0  0  0  0  0  0  0  0
   21.6301    9.2617   -5.1711 H   0  0  0  0  0  0  0  0  0  0  0  0
   22.2155    7.5635   -5.1711 H   0  0  0  0  0  0  0  0  0  0  0  0
  1  7  1  0
  1  2  2  0
  1  4  1  0
  2  3  1  0
  3  5  1  0
  5  8  2  0
  5  6  1  0
  6 10  1  0
  6  7  2  0
  8  9  1  0
  9 18  1  0
  9 10  2  0
 10 21  1  0
 18 19  2  0
 19 20  1  0
 20 21  2  0
  4 11  1  0
 11 16  2  0
 11 12  1  0
 12 13  1  0
 13 14  1  0
 13 17  2  0
 14 15  2  0
 14 22  1  0
 15 16  1  0
 22 23  1  0
  2 24  1  0
  3 25  1  0
  4 26  1  0
  7 27  1  0
 12 28  1  0
 15 29  1  0
 16 30  1  0
 18 31  1  0
 19 32  1  0
 20 33  1  0
 22 34  1  1
 22 35  1  0
 23 36  1  1
 23 37  1  0
 23 38  1  0
M  END
>  <Pose ID>  (275)
112

>  <Score>  (275)
-6.098740577697754

>  <smiles>  (275)
CCc1ccc(Nc2c[nH]c3nc4cccnc4c-3c2)[nH]c1=O

$$$$

     RDKit          3D

 37 40  0  0  0  0  0  0  0  0999 V2000
   27.9040    7.8440  -10.2780 C   0  0  0  0  0  0  0  0  0  0  0  0
   28.8810    7.1270  -10.9570 C   0  0  0  0  0  0  0  0  0  0  0  0
   29.7230    7.7770  -11.8510 N   0  0  0  0  0  0  0  0  0  0  0  0
   29.5890    9.1420  -12.0690 C   0  0  0  0  0  0  0  0  0  0  0  0
   27.1080    7.0210   -9.3730 O   0  0  0  0  0  0  0  0  0  0  0  0
   28.6080    9.8610  -11.3890 C   0  0  0  0  0  0  0  0  0  0  0  0
   27.7690    9.2100  -10.4950 C   0  0  0  0  0  0  0  0  0  0  0  0
   30.2730    9.9830  -12.8710 N   0  0  0  0  0  0  0  0  0  0  0  0
   29.7510   11.2490  -12.7350 C   0  0  0  0  0  0  0  0  0  0  0  0
   28.7290   11.0040  -11.7900 C   0  0  0  0  0  0  0  0  0  0  0  0
   26.2730    7.5330   -8.3720 C   0  0  0  0  0  0  0  0  0  0  0  0
   25.4430    8.5860   -8.7240 N   0  0  0  0  0  0  0  0  0  0  0  0
   24.7720    8.9350   -7.6490 N   0  0  0  0  0  0  0  0  0  0  0  0
   25.0520    8.1840   -6.5150 C   0  0  0  0  0  0  0  0  0  0  0  0
   26.0040    7.2920   -7.0370 C   0  0  0  0  0  0  0  0  0  0  0  0
   23.8310    9.9570   -7.5910 C   0  0  0  0  0  0  0  0  0  0  0  0
   23.1700   10.2280   -6.3990 C   0  0  0  0  0  0  0  0  0  0  0  0
   23.4530    9.4760   -5.2640 C   0  0  0  0  0  0  0  0  0  0  0  0
   24.3920    8.4550   -5.3210 N   0  0  0  0  0  0  0  0  0  0  0  0
   30.1570   12.5370  -13.4040 C   0  0  1  0  0  0  0  0  0  0  0  0
   27.8250   12.1080  -11.3020 C   0  0  1  0  0  0  0  0  0  0  0  0
   27.1440   12.9920  -12.3560 C   0  0  1  0  0  0  0  0  0  0  0  0
   28.9880    6.0455  -10.7871 H   0  0  0  0  0  0  0  0  0  0  0  0
   30.4482    7.2452  -12.3532 H   0  0  0  0  0  0  0  0  0  0  0  0
   26.9951    9.7770   -9.9568 H   0  0  0  0  0  0  0  0  0  0  0  0
   26.4810    6.4929   -6.4505 H   0  0  0  0  0  0  0  0  0  0  0  0
   23.6095   10.5516   -8.4896 H   0  0  0  0  0  0  0  0  0  0  0  0
   22.4245   11.0356   -6.3534 H   0  0  0  0  0  0  0  0  0  0  0  0
   22.9319    9.6905   -4.3193 H   0  0  0  0  0  0  0  0  0  0  0  0
   30.3942   13.2894  -12.6374 H   0  0  0  0  0  0  0  0  0  0  0  0
   31.0432   12.3608  -14.0314 H   0  0  0  0  0  0  0  0  0  0  0  0
   29.3300   12.9008  -14.0314 H   0  0  0  0  0  0  0  0  0  0  0  0
   27.0301   11.6406  -10.7023 H   0  0  0  0  0  0  0  0  0  0  0  0
   28.4915   12.7913  -10.7552 H   0  0  0  0  0  0  0  0  0  0  0  0
   26.5467   13.7673  -11.8538 H   0  0  0  0  0  0  0  0  0  0  0  0
   27.9101   13.4692  -12.9847 H   0  0  0  0  0  0  0  0  0  0  0  0
   26.4871   12.3730  -12.9847 H   0  0  0  0  0  0  0  0  0  0  0  0
  1  2  2  0
  1  7  1  0
  1  5  1  0
  2  3  1  0
  3  4  1  0
  4  8  2  0
  4  6  1  0
  6 10  1  0
  6  7  2  0
  8  9  1  0
  9 20  1  0
  9 10  2  0
 10 21  1  0
 21 22  1  0
  5 11  1  0
 11 12  2  0
 11 15  1  0
 12 13  1  0
 13 16  1  0
 13 14  1  0
 14 15  2  0
 14 19  1  0
 16 17  2  0
 17 18  1  0
 18 19  2  0
  2 23  1  0
  3 24  1  0
  7 25  1  0
 15 26  1  0
 16 27  1  0
 17 28  1  0
 18 29  1  0
 20 30  1  1
 20 31  1  0
 20 32  1  0
 21 33  1  1
 21 34  1  0
 22 35  1  1
 22 36  1  0
 22 37  1  0
M  END
>  <Pose ID>  (276)
370

>  <Score>  (276)
-6.090240001678467

>  <smiles>  (276)
CCc1c2cc(Oc3cc4ncccn4n3)c[nH]c-2nc1C

$$$$

     RDKit          3D

 44 47  0  0  0  0  0  0  0  0999 V2000
   27.3370    8.4020  -10.1290 C   0  0  0  0  0  0  0  0  0  0  0  0
   28.2050    7.4030  -10.5500 C   0  0  0  0  0  0  0  0  0  0  0  0
   29.2380    7.7050  -11.4270 N   0  0  0  0  0  0  0  0  0  0  0  0
   29.4020    9.0070  -11.8880 C   0  0  0  0  0  0  0  0  0  0  0  0
   26.3110    7.9260   -9.2020 O   0  0  0  0  0  0  0  0  0  0  0  0
   28.5300   10.0060  -11.4690 C   0  0  0  0  0  0  0  0  0  0  0  0
   27.5000    9.7030  -10.5900 C   0  0  0  0  0  0  0  0  0  0  0  0
   30.3100    9.5390  -12.7300 N   0  0  0  0  0  0  0  0  0  0  0  0
   30.0460   10.8820  -12.8750 C   0  0  0  0  0  0  0  0  0  0  0  0
   28.9130   11.0110  -12.0400 C   0  0  0  0  0  0  0  0  0  0  0  0
   25.5140    8.7630   -8.4170 C   0  0  0  0  0  0  0  0  0  0  0  0
   24.9460    9.8630   -9.0430 N   0  0  0  0  0  0  0  0  0  0  0  0
   24.2270   10.5680   -8.0930 N   0  0  0  0  0  0  0  0  0  0  0  0
   24.3300    9.9240   -6.9220 C   0  0  0  0  0  0  0  0  0  0  0  0
   25.0810    8.8350   -7.1040 C   0  0  0  0  0  0  0  0  0  0  0  0
   23.5230   11.7730   -8.4500 C   0  0  1  0  0  0  0  0  0  0  0  0
   23.8480   10.1470   -5.6620 N   0  0  0  0  0  0  0  0  0  0  0  0
   24.4190   10.0920   -4.3080 C   0  0  1  0  0  0  0  0  0  0  0  0
   23.7540    9.3060   -3.2920 C   0  0  1  0  0  0  0  0  0  0  0  0
   22.2680    9.8080   -3.1080 C   0  0  1  0  0  0  0  0  0  0  0  0
   21.5340    9.5230   -4.4060 C   0  0  1  0  0  0  0  0  0  0  0  0
   22.4090   10.5260   -5.5870 C   0  0  1  0  0  0  0  0  0  0  0  0
   24.2090   12.9880   -7.7730 C   0  0  1  0  0  0  0  0  0  0  0  0
   28.0740    6.3724  -10.1886 H   0  0  0  0  0  0  0  0  0  0  0  0
   29.8834    6.9644  -11.7365 H   0  0  0  0  0  0  0  0  0  0  0  0
   26.8114   10.4937  -10.2575 H   0  0  0  0  0  0  0  0  0  0  0  0
   30.5700   11.6420  -13.4732 H   0  0  0  0  0  0  0  0  0  0  0  0
   28.4003   11.9757  -11.9117 H   0  0  0  0  0  0  0  0  0  0  0  0
   25.3214    8.0997   -6.3220 H   0  0  0  0  0  0  0  0  0  0  0  0
   23.5442   11.9009   -9.5423 H   0  0  0  0  0  0  0  0  0  0  0  0
   22.4789   11.7036   -8.1109 H   0  0  0  0  0  0  0  0  0  0  0  0
   25.4395    9.6932   -4.4058 H   0  0  0  0  0  0  0  0  0  0  0  0
   24.3242   11.1252   -3.9425 H   0  0  0  0  0  0  0  0  0  0  0  0
   23.7465    8.2489   -3.5960 H   0  0  0  0  0  0  0  0  0  0  0  0
   24.2931    9.4162   -2.3395 H   0  0  0  0  0  0  0  0  0  0  0  0
   21.7883    9.2692   -2.2776 H   0  0  0  0  0  0  0  0  0  0  0  0
   22.2450   10.8826   -2.8742 H   0  0  0  0  0  0  0  0  0  0  0  0
   21.5958    8.4568   -4.6696 H   0  0  0  0  0  0  0  0  0  0  0  0
   20.4589    9.7501   -4.3556 H   0  0  0  0  0  0  0  0  0  0  0  0
   22.3321   11.5815   -5.2868 H   0  0  0  0  0  0  0  0  0  0  0  0
   21.9573   10.3679   -6.5775 H   0  0  0  0  0  0  0  0  0  0  0  0
   24.1486   12.8810   -6.6799 H   0  0  0  0  0  0  0  0  0  0  0  0
   25.2646   13.0308   -8.0795 H   0  0  0  0  0  0  0  0  0  0  0  0
   23.7004   13.9140   -8.0795 H   0  0  0  0  0  0  0  0  0  0  0  0
 11  5  1  0
 11 12  2  0
 11 15  1  0
 12 13  1  0
 13 16  1  0
 13 14  1  0
 14 15  2  0
 14 17  1  0
 17 22  1  0
 17 18  1  0
 18 19  1  0
 19 20  1  0
 20 21  1  0
 21 22  1  0
 16 23  1  0
  5  1  1  0
  1  7  1  0
  1  2  2  0
  2  3  1  0
  3  4  1  0
  4  8  2  0
  4  6  1  0
  6 10  1  0
  6  7  2  0
  8  9  1  0
  9 10  2  0
  2 24  1  0
  3 25  1  0
  7 26  1  0
  9 27  1  0
 10 28  1  0
 15 29  1  0
 16 30  1  6
 16 31  1  0
 18 32  1  6
 18 33  1  0
 19 34  1  6
 19 35  1  0
 20 36  1  1
 20 37  1  0
 21 38  1  6
 21 39  1  0
 22 40  1  1
 22 41  1  0
 23 42  1  1
 23 43  1  0
 23 44  1  0
M  END
>  <Pose ID>  (277)
550

>  <Score>  (277)
-6.083173751831055

>  <smiles>  (277)
CCn1nc(Oc2c[nH]c3nccc-3c2)cc1N1CCCCC1

$$$$

     RDKit          3D

 30 32  0  0  0  0  0  0  0  0999 V2000
   26.7690    8.9460  -10.3680 C   0  0  0  0  0  0  0  0  0  0  0  0
   27.4080    7.7230  -10.1850 C   0  0  0  0  0  0  0  0  0  0  0  0
   28.6520    7.4960  -10.7630 N   0  0  0  0  0  0  0  0  0  0  0  0
   25.5640    9.4880   -9.9400 N   0  0  0  0  0  0  0  0  0  0  0  0
   29.2560    8.4880  -11.5290 C   0  0  0  0  0  0  0  0  0  0  0  0
   28.6160    9.7080  -11.7140 C   0  0  0  0  0  0  0  0  0  0  0  0
   27.3730    9.9360  -11.1350 C   0  0  0  0  0  0  0  0  0  0  0  0
   30.4320    8.5040  -12.1800 N   0  0  0  0  0  0  0  0  0  0  0  0
   30.5800    9.7240  -12.7990 C   0  0  0  0  0  0  0  0  0  0  0  0
   29.3710   10.3490  -12.4230 C   0  0  0  0  0  0  0  0  0  0  0  0
   25.2330    9.8330   -8.5370 C   0  0  0  0  0  0  0  0  0  0  0  0
   24.0480   10.3600   -8.0540 N   0  0  0  0  0  0  0  0  0  0  0  0
   23.9150   10.6720   -6.7060 C   0  0  0  0  0  0  0  0  0  0  0  0
   24.9700   10.4190   -5.8340 C   0  0  0  0  0  0  0  0  0  0  0  0
   26.1550    9.8750   -6.3140 C   0  0  0  0  0  0  0  0  0  0  0  0
   26.2850    9.5810   -7.6650 N   0  0  0  0  0  0  0  0  0  0  0  0
   27.0970    9.6520   -5.5340 O   0  0  0  0  0  0  0  0  0  0  0  0
   26.7390   11.1450  -11.3210 O   0  0  0  0  0  0  0  0  0  0  0  0
   27.4020   12.1530  -10.5700 C   0  0  1  0  0  0  0  0  0  0  0  0
   26.9290    6.9365   -9.5834 H   0  0  0  0  0  0  0  0  0  0  0  0
   29.1268    6.5926  -10.6240 H   0  0  0  0  0  0  0  0  0  0  0  0
   24.8431    9.6642  -10.6543 H   0  0  0  0  0  0  0  0  0  0  0  0
   31.4081   10.1055  -13.4143 H   0  0  0  0  0  0  0  0  0  0  0  0
   29.1224   11.3678  -12.7551 H   0  0  0  0  0  0  0  0  0  0  0  0
   22.9814   11.1163   -6.3305 H   0  0  0  0  0  0  0  0  0  0  0  0
   24.8655   10.6500   -4.7636 H   0  0  0  0  0  0  0  0  0  0  0  0
   27.1624    9.1756   -8.0211 H   0  0  0  0  0  0  0  0  0  0  0  0
   27.2719   11.9552   -9.4958 H   0  0  0  0  0  0  0  0  0  0  0  0
   28.4740   12.1485  -10.8165 H   0  0  0  0  0  0  0  0  0  0  0  0
   26.9733   13.1356  -10.8165 H   0  0  0  0  0  0  0  0  0  0  0  0
  1  7  1  0
  1  2  2  0
  1  4  1  0
  2  3  1  0
  3  5  1  0
  5  8  2  0
  5  6  1  0
  6 10  1  0
  6  7  2  0
  7 18  1  0
  8  9  1  0
  9 10  2  0
  4 11  1  0
 11 12  2  0
 11 16  1  0
 12 13  1  0
 13 14  2  0
 14 15  1  0
 15 16  1  0
 15 17  2  0
 18 19  1  0
  2 20  1  0
  3 21  1  0
  4 22  1  0
  9 23  1  0
 10 24  1  0
 13 25  1  0
 14 26  1  0
 16 27  1  0
 19 28  1  1
 19 29  1  0
 19 30  1  0
M  END
>  <Pose ID>  (278)
27

>  <Score>  (278)
-6.0831732749938965

>  <smiles>  (278)
COc1c(Nc2nccc(=O)[nH]2)c[nH]c2nccc1-2

$$$$

     RDKit          3D

 34 37  0  0  0  0  0  0  0  0999 V2000
   27.8890    7.9060  -10.3070 C   0  0  0  0  0  0  0  0  0  0  0  0
   28.8130    7.1540  -11.0200 C   0  0  0  0  0  0  0  0  0  0  0  0
   29.6810    7.7790  -11.9060 N   0  0  0  0  0  0  0  0  0  0  0  0
   29.6260    9.1570  -12.0790 C   0  0  0  0  0  0  0  0  0  0  0  0
   27.0570    7.1030   -9.4160 O   0  0  0  0  0  0  0  0  0  0  0  0
   28.6980    9.9100  -11.3650 C   0  0  0  0  0  0  0  0  0  0  0  0
   27.8320    9.2840  -10.4790 C   0  0  0  0  0  0  0  0  0  0  0  0
   30.3490    9.9790  -12.8660 N   0  0  0  0  0  0  0  0  0  0  0  0
   29.9050   11.2700  -12.6840 C   0  0  0  0  0  0  0  0  0  0  0  0
   28.8810   11.0560  -11.7340 C   0  0  0  0  0  0  0  0  0  0  0  0
   26.2650    7.6330   -8.3880 C   0  0  0  0  0  0  0  0  0  0  0  0
   25.4950    8.7420   -8.6960 N   0  0  0  0  0  0  0  0  0  0  0  0
   24.8580    9.0970   -7.6030 N   0  0  0  0  0  0  0  0  0  0  0  0
   25.1070    8.2960   -6.4960 C   0  0  0  0  0  0  0  0  0  0  0  0
   25.9980    7.3670   -7.0570 C   0  0  0  0  0  0  0  0  0  0  0  0
   23.9810   10.1700   -7.5010 C   0  0  0  0  0  0  0  0  0  0  0  0
   23.3510   10.4420   -6.2930 C   0  0  0  0  0  0  0  0  0  0  0  0
   23.6020    9.6410   -5.1840 C   0  0  0  0  0  0  0  0  0  0  0  0
   24.4780    8.5680   -5.2860 N   0  0  0  0  0  0  0  0  0  0  0  0
   30.3790   12.5520  -13.3210 C   0  0  1  0  0  0  0  0  0  0  0  0
   23.7110   11.0410   -8.7030 C   0  0  1  0  0  0  0  0  0  0  0  0
   28.8576    6.0634  -10.8832 H   0  0  0  0  0  0  0  0  0  0  0  0
   30.3660    7.2209  -12.4353 H   0  0  0  0  0  0  0  0  0  0  0  0
   27.1002    9.8789   -9.9127 H   0  0  0  0  0  0  0  0  0  0  0  0
   28.2758   11.8880  -11.3449 H   0  0  0  0  0  0  0  0  0  0  0  0
   26.4340    6.5237   -6.5014 H   0  0  0  0  0  0  0  0  0  0  0  0
   22.6546   11.2898   -6.2137 H   0  0  0  0  0  0  0  0  0  0  0  0
   23.1067    9.8573   -4.2260 H   0  0  0  0  0  0  0  0  0  0  0  0
   30.6462   13.2746  -12.5359 H   0  0  0  0  0  0  0  0  0  0  0  0
   31.2607   12.3468  -13.9459 H   0  0  0  0  0  0  0  0  0  0  0  0
   29.5759   12.9697  -13.9459 H   0  0  0  0  0  0  0  0  0  0  0  0
   23.4007   12.0419   -8.3683 H   0  0  0  0  0  0  0  0  0  0  0  0
   24.6256   11.1240   -9.3085 H   0  0  0  0  0  0  0  0  0  0  0  0
   22.9098   10.5922   -9.3085 H   0  0  0  0  0  0  0  0  0  0  0  0
  1  2  2  0
  1  7  1  0
  1  5  1  0
  2  3  1  0
  3  4  1  0
  4  8  2  0
  4  6  1  0
  6 10  1  0
  6  7  2  0
  8  9  1  0
  9 20  1  0
  9 10  2  0
  5 11  1  0
 11 12  2  0
 11 15  1  0
 12 13  1  0
 13 16  1  0
 13 14  1  0
 14 15  2  0
 14 19  1  0
 16 21  1  0
 16 17  2  0
 17 18  1  0
 18 19  2  0
  2 22  1  0
  3 23  1  0
  7 24  1  0
 10 25  1  0
 15 26  1  0
 17 27  1  0
 18 28  1  0
 20 29  1  1
 20 30  1  0
 20 31  1  0
 21 32  1  1
 21 33  1  0
 21 34  1  0
M  END
>  <Pose ID>  (279)
362

>  <Score>  (279)
-6.07632303237915

>  <smiles>  (279)
Cc1cc2cc(Oc3cc4nccc(C)n4n3)c[nH]c-2n1

$$$$

     RDKit          3D

 40 42  0  0  0  0  0  0  0  0999 V2000
   28.8330    9.4570  -11.9670 C   0  0  0  0  0  0  0  0  0  0  0  0
   29.4760    8.2590  -11.7160 C   0  0  0  0  0  0  0  0  0  0  0  0
   28.9320    7.3610  -10.8050 N   0  0  0  0  0  0  0  0  0  0  0  0
   27.7600    7.6750  -10.1320 C   0  0  0  0  0  0  0  0  0  0  0  0
   27.6670    9.7880  -11.2790 C   0  0  0  0  0  0  0  0  0  0  0  0
   27.1260    8.8880  -10.3670 C   0  0  0  0  0  0  0  0  0  0  0  0
   27.0570    6.9790   -9.2170 N   0  0  0  0  0  0  0  0  0  0  0  0
   25.9600    7.7260   -8.8430 C   0  0  0  0  0  0  0  0  0  0  0  0
   26.1520    8.8780   -9.6350 C   0  0  0  0  0  0  0  0  0  0  0  0
   24.8940    7.5930   -7.9860 N   0  0  0  0  0  0  0  0  0  0  0  0
   24.7150    8.3510   -6.8210 C   0  0  0  0  0  0  0  0  0  0  0  0
   24.0530    9.5710   -6.9000 C   0  0  0  0  0  0  0  0  0  0  0  0
   23.8650   10.3350   -5.7550 C   0  0  0  0  0  0  0  0  0  0  0  0
   24.3420    9.8820   -4.5310 C   0  0  0  0  0  0  0  0  0  0  0  0
   25.0050    8.6620   -4.4530 N   0  0  0  0  0  0  0  0  0  0  0  0
   25.1900    7.8990   -5.5990 C   0  0  0  0  0  0  0  0  0  0  0  0
   23.1890   11.4830   -6.0860 N   0  0  0  0  0  0  0  0  0  0  0  0
   23.7760   12.7940   -5.8840 C   0  0  0  0  0  0  0  0  0  0  0  0
   24.9190   12.9210   -5.5680 O   0  0  0  0  0  0  0  0  0  0  0  0
   22.8660   13.8840   -6.3140 C   0  0  1  0  0  0  0  0  0  0  0  0
   27.0540   11.0020  -11.5000 O   0  0  0  0  0  0  0  0  0  0  0  0
   27.1900   12.0400  -12.4820 C   0  0  1  0  0  0  0  0  0  0  0  0
   22.0350   14.5470   -5.1620 C   0  0  1  0  0  0  0  0  0  0  0  0
   29.2439   10.1525  -12.7136 H   0  0  0  0  0  0  0  0  0  0  0  0
   30.4150    8.0173  -12.2355 H   0  0  0  0  0  0  0  0  0  0  0  0
   29.4000    6.4605  -10.6292 H   0  0  0  0  0  0  0  0  0  0  0  0
   25.4546    9.7277   -9.5935 H   0  0  0  0  0  0  0  0  0  0  0  0
   24.1783    6.8887   -8.2154 H   0  0  0  0  0  0  0  0  0  0  0  0
   23.6780    9.9314   -7.8693 H   0  0  0  0  0  0  0  0  0  0  0  0
   24.1953   10.4878   -3.6246 H   0  0  0  0  0  0  0  0  0  0  0  0
   25.7145    6.9341   -5.5370 H   0  0  0  0  0  0  0  0  0  0  0  0
   22.2430   11.4118   -6.4871 H   0  0  0  0  0  0  0  0  0  0  0  0
   23.4734   14.6673   -6.7909 H   0  0  0  0  0  0  0  0  0  0  0  0
   22.1347   13.4232   -6.9944 H   0  0  0  0  0  0  0  0  0  0  0  0
   27.3169   13.0087  -11.9765 H   0  0  0  0  0  0  0  0  0  0  0  0
   28.0692   11.8367  -13.1111 H   0  0  0  0  0  0  0  0  0  0  0  0
   26.2881   12.0701  -13.1111 H   0  0  0  0  0  0  0  0  0  0  0  0
   22.4364   14.2268   -4.1892 H   0  0  0  0  0  0  0  0  0  0  0  0
   22.1029   15.6418   -5.2442 H   0  0  0  0  0  0  0  0  0  0  0  0
   20.9826   14.2377   -5.2442 H   0  0  0  0  0  0  0  0  0  0  0  0
 10  8  1  0
 10 11  1  0
  1  2  2  0
  1  5  1  0
  2  3  1  0
  3  4  1  0
  4  6  1  0
  4  7  2  0
  5 21  1  0
  5  6  2  0
  6  9  1  0
  7  8  1  0
  8  9  2  0
 21 22  1  0
 11 12  2  0
 11 16  1  0
 12 13  1  0
 13 17  1  0
 13 14  2  0
 14 15  1  0
 15 16  2  0
 17 18  1  0
 18 20  1  0
 18 19  2  0
 20 23  1  0
  1 24  1  0
  2 25  1  0
  3 26  1  0
  9 27  1  0
 10 28  1  0
 12 29  1  0
 14 30  1  0
 16 31  1  0
 17 32  1  0
 20 33  1  6
 20 34  1  0
 22 35  1  1
 22 36  1  0
 22 37  1  0
 23 38  1  1
 23 39  1  0
 23 40  1  0
M  END
>  <Pose ID>  (280)
225

>  <Score>  (280)
-6.073587417602539

>  <smiles>  (280)
CCC(=O)Nc1cncc(Nc2cc3c(OC)cc[nH]c-3n2)c1

$$$$

     RDKit          3D

 35 38  0  0  0  0  0  0  0  0999 V2000
   26.9280    8.3180   -9.8090 C   0  0  0  0  0  0  0  0  0  0  0  0
   27.4420    7.1790  -10.4140 C   0  0  0  0  0  0  0  0  0  0  0  0
   28.4760    7.2860  -11.3370 N   0  0  0  0  0  0  0  0  0  0  0  0
   29.0000    8.5350  -11.6530 C   0  0  0  0  0  0  0  0  0  0  0  0
   25.8560    8.0340   -8.8620 O   0  0  0  0  0  0  0  0  0  0  0  0
   28.4820    9.6770  -11.0470 C   0  0  0  0  0  0  0  0  0  0  0  0
   27.4500    9.5670  -10.1240 C   0  0  0  0  0  0  0  0  0  0  0  0
   29.9840    8.8930  -12.5000 N   0  0  0  0  0  0  0  0  0  0  0  0
   30.1240   10.2620  -12.4640 C   0  0  0  0  0  0  0  0  0  0  0  0
   29.1220   10.5970  -11.5260 C   0  0  0  0  0  0  0  0  0  0  0  0
   25.3770    8.9510   -7.9180 C   0  0  0  0  0  0  0  0  0  0  0  0
   25.1350   10.2420   -8.3600 N   0  0  0  0  0  0  0  0  0  0  0  0
   24.7020   10.9870   -7.2790 N   0  0  0  0  0  0  0  0  0  0  0  0
   24.6630   10.1890   -6.2020 C   0  0  0  0  0  0  0  0  0  0  0  0
   25.0480    8.9650   -6.5740 C   0  0  0  0  0  0  0  0  0  0  0  0
   24.3720   12.2790   -7.3160 C   0  0  0  0  0  0  0  0  0  0  0  0
   24.4380   13.0360   -8.4800 C   0  0  0  0  0  0  0  0  0  0  0  0
   23.6600   12.7510   -6.2200 N   0  0  0  0  0  0  0  0  0  0  0  0
   23.7920   14.2650   -8.5480 C   0  0  0  0  0  0  0  0  0  0  0  0
   23.0140   13.9800   -6.2870 C   0  0  0  0  0  0  0  0  0  0  0  0
   23.0540   14.7360   -7.4610 C   0  0  0  0  0  0  0  0  0  0  0  0
   23.8900   15.0940   -9.8040 C   0  0  1  0  0  0  0  0  0  0  0  0
   27.0304    6.1904  -10.1626 H   0  0  0  0  0  0  0  0  0  0  0  0
   28.8541    6.4402  -11.7869 H   0  0  0  0  0  0  0  0  0  0  0  0
   27.0455   10.4692   -9.6419 H   0  0  0  0  0  0  0  0  0  0  0  0
   30.8210   10.9129  -13.0122 H   0  0  0  0  0  0  0  0  0  0  0  0
   28.9281   11.6415  -11.2407 H   0  0  0  0  0  0  0  0  0  0  0  0
   24.3652   10.4904   -5.1869 H   0  0  0  0  0  0  0  0  0  0  0  0
   25.0966    8.0920   -5.9065 H   0  0  0  0  0  0  0  0  0  0  0  0
   25.0016   12.6624   -9.3476 H   0  0  0  0  0  0  0  0  0  0  0  0
   22.4682   14.3594   -5.4106 H   0  0  0  0  0  0  0  0  0  0  0  0
   22.5109   15.6902   -7.5279 H   0  0  0  0  0  0  0  0  0  0  0  0
   24.0152   16.1533   -9.5353 H   0  0  0  0  0  0  0  0  0  0  0  0
   24.7551   14.7612  -10.3964 H   0  0  0  0  0  0  0  0  0  0  0  0
   22.9712   14.9721  -10.3964 H   0  0  0  0  0  0  0  0  0  0  0  0
 11  5  1  0
 11 12  2  0
 11 15  1  0
 12 13  1  0
 13 16  1  0
 13 14  1  0
 14 15  2  0
 16 17  2  0
 16 18  1  0
 17 19  1  0
 18 20  2  0
 19 22  1  0
 19 21  2  0
 20 21  1  0
  5  1  1  0
  1  2  2  0
  1  7  1  0
  2  3  1  0
  3  4  1  0
  4  8  2  0
  4  6  1  0
  6 10  1  0
  6  7  2  0
  8  9  1  0
  9 10  2  0
  2 23  1  0
  3 24  1  0
  7 25  1  0
  9 26  1  0
 10 27  1  0
 14 28  1  0
 15 29  1  0
 17 30  1  0
 20 31  1  0
 21 32  1  0
 22 33  1  1
 22 34  1  0
 22 35  1  0
M  END
>  <Pose ID>  (281)
442

>  <Score>  (281)
-6.073243618011475

>  <smiles>  (281)
Cc1ccnc(-n2ccc(Oc3c[nH]c4nccc-4c3)n2)c1

$$$$

     RDKit          3D

 37 40  0  0  0  0  0  0  0  0999 V2000
   27.8810    7.9090  -10.2950 C   0  0  0  0  0  0  0  0  0  0  0  0
   28.8040    7.1550  -11.0070 C   0  0  0  0  0  0  0  0  0  0  0  0
   29.6730    7.7770  -11.8960 N   0  0  0  0  0  0  0  0  0  0  0  0
   29.6190    9.1540  -12.0720 C   0  0  0  0  0  0  0  0  0  0  0  0
   27.0480    7.1110   -9.4010 O   0  0  0  0  0  0  0  0  0  0  0  0
   28.6940    9.9100  -11.3590 C   0  0  0  0  0  0  0  0  0  0  0  0
   27.8270    9.2870  -10.4700 C   0  0  0  0  0  0  0  0  0  0  0  0
   30.3430    9.9730  -12.8610 N   0  0  0  0  0  0  0  0  0  0  0  0
   29.9010   11.2650  -12.6820 C   0  0  0  0  0  0  0  0  0  0  0  0
   28.8790   11.0550  -11.7310 C   0  0  0  0  0  0  0  0  0  0  0  0
   26.2590    7.6450   -8.3750 C   0  0  0  0  0  0  0  0  0  0  0  0
   25.4910    8.7550   -8.6840 N   0  0  0  0  0  0  0  0  0  0  0  0
   24.8560    9.1140   -7.5910 N   0  0  0  0  0  0  0  0  0  0  0  0
   25.1040    8.3160   -6.4820 C   0  0  0  0  0  0  0  0  0  0  0  0
   25.9930    7.3830   -7.0420 C   0  0  0  0  0  0  0  0  0  0  0  0
   23.9800   10.1890   -7.4910 C   0  0  0  0  0  0  0  0  0  0  0  0
   23.3520   10.4660   -6.2820 C   0  0  0  0  0  0  0  0  0  0  0  0
   23.6030    9.6670   -5.1730 C   0  0  0  0  0  0  0  0  0  0  0  0
   24.4770    8.5910   -5.2730 N   0  0  0  0  0  0  0  0  0  0  0  0
   22.9230    9.9660   -3.8600 C   0  0  1  0  0  0  0  0  0  0  0  0
   30.3760   12.5450  -13.3240 C   0  0  1  0  0  0  0  0  0  0  0  0
   23.7100   11.0560   -8.6960 C   0  0  1  0  0  0  0  0  0  0  0  0
   28.8477    6.0647  -10.8676 H   0  0  0  0  0  0  0  0  0  0  0  0
   30.3571    7.2168  -12.4243 H   0  0  0  0  0  0  0  0  0  0  0  0
   27.0972    9.8846   -9.9041 H   0  0  0  0  0  0  0  0  0  0  0  0
   28.2760   11.8891  -11.3428 H   0  0  0  0  0  0  0  0  0  0  0  0
   26.4280    6.5404   -6.4846 H   0  0  0  0  0  0  0  0  0  0  0  0
   22.6579   11.3158   -6.2034 H   0  0  0  0  0  0  0  0  0  0  0  0
   23.5840    9.6753   -3.0302 H   0  0  0  0  0  0  0  0  0  0  0  0
   22.7061   11.0425   -3.7962 H   0  0  0  0  0  0  0  0  0  0  0  0
   21.9831    9.3982   -3.7962 H   0  0  0  0  0  0  0  0  0  0  0  0
   30.6450   13.2698  -12.5415 H   0  0  0  0  0  0  0  0  0  0  0  0
   31.2567   12.3367  -13.9493 H   0  0  0  0  0  0  0  0  0  0  0  0
   29.5726   12.9617  -13.9493 H   0  0  0  0  0  0  0  0  0  0  0  0
   23.3981   12.0575   -8.3647 H   0  0  0  0  0  0  0  0  0  0  0  0
   24.6250   11.1383   -9.3009 H   0  0  0  0  0  0  0  0  0  0  0  0
   22.9100   10.6042   -9.3009 H   0  0  0  0  0  0  0  0  0  0  0  0
  5  1  1  0
  5 11  1  0
  1  2  2  0
  1  7  1  0
  2  3  1  0
  3  4  1  0
  4  8  2  0
  4  6  1  0
  6 10  1  0
  6  7  2  0
  8  9  1  0
  9 21  1  0
  9 10  2  0
 11 12  2  0
 11 15  1  0
 12 13  1  0
 13 16  1  0
 13 14  1  0
 14 15  2  0
 14 19  1  0
 16 22  1  0
 16 17  2  0
 17 18  1  0
 18 19  2  0
 18 20  1  0
  2 23  1  0
  3 24  1  0
  7 25  1  0
 10 26  1  0
 15 27  1  0
 17 28  1  0
 20 29  1  1
 20 30  1  0
 20 31  1  0
 21 32  1  1
 21 33  1  0
 21 34  1  0
 22 35  1  1
 22 36  1  0
 22 37  1  0
M  END
>  <Pose ID>  (282)
387

>  <Score>  (282)
-6.070295810699463

>  <smiles>  (282)
Cc1cc2cc(Oc3cc4nc(C)cc(C)n4n3)c[nH]c-2n1

$$$$

     RDKit          3D

 38 41  0  0  0  0  0  0  0  0999 V2000
   27.3450    8.4650  -10.2780 C   0  0  0  0  0  0  0  0  0  0  0  0
   28.2160    7.4750  -10.7190 C   0  0  0  0  0  0  0  0  0  0  0  0
   29.2770    7.8040  -11.5530 N   0  0  0  0  0  0  0  0  0  0  0  0
   29.4680    9.1240  -11.9500 C   0  0  0  0  0  0  0  0  0  0  0  0
   26.2900    7.9570   -9.4020 O   0  0  0  0  0  0  0  0  0  0  0  0
   28.5950   10.1130  -11.5090 C   0  0  0  0  0  0  0  0  0  0  0  0
   27.5370    9.7820  -10.6730 C   0  0  0  0  0  0  0  0  0  0  0  0
   30.4040    9.6820  -12.7400 N   0  0  0  0  0  0  0  0  0  0  0  0
   30.2470   10.8270  -12.8310 C   0  0  0  0  0  0  0  0  0  0  0  0
   29.0950   11.1450  -12.1220 C   0  0  0  0  0  0  0  0  0  0  0  0
   25.4790    8.7680   -8.6040 C   0  0  0  0  0  0  0  0  0  0  0  0
   24.9420    9.9030   -9.1920 N   0  0  0  0  0  0  0  0  0  0  0  0
   24.2040   10.5720   -8.2340 N   0  0  0  0  0  0  0  0  0  0  0  0
   24.2650    9.8760   -7.0900 C   0  0  0  0  0  0  0  0  0  0  0  0
   25.0110    8.7850   -7.3000 C   0  0  0  0  0  0  0  0  0  0  0  0
   23.5200   11.7990   -8.5510 C   0  0  1  0  0  0  0  0  0  0  0  0
   30.9310   11.8150  -13.5260 C   0  0  0  0  0  0  0  0  0  0  0  0
   30.4630   13.1240  -13.5130 C   0  0  0  0  0  0  0  0  0  0  0  0
   29.3120   13.4450  -12.8040 C   0  0  0  0  0  0  0  0  0  0  0  0
   28.6270   12.4540  -12.1090 C   0  0  0  0  0  0  0  0  0  0  0  0
   28.8040   14.8660  -12.7890 C   0  0  1  0  0  0  0  0  0  0  0  0
   25.3020    7.7260   -6.2660 C   0  0  1  0  0  0  0  0  0  0  0  0
   28.0648    6.4310  -10.4074 H   0  0  0  0  0  0  0  0  0  0  0  0
   29.9229    7.0704  -11.8778 H   0  0  0  0  0  0  0  0  0  0  0  0
   26.8490   10.5655  -10.3227 H   0  0  0  0  0  0  0  0  0  0  0  0
   23.7840   10.1542   -6.1407 H   0  0  0  0  0  0  0  0  0  0  0  0
   23.2347   12.3108   -7.6201 H   0  0  0  0  0  0  0  0  0  0  0  0
   24.1859   12.4490   -9.1375 H   0  0  0  0  0  0  0  0  0  0  0  0
   22.6169   11.5744   -9.1375 H   0  0  0  0  0  0  0  0  0  0  0  0
   31.8429   11.5623  -14.0868 H   0  0  0  0  0  0  0  0  0  0  0  0
   31.0046   13.9065  -14.0647 H   0  0  0  0  0  0  0  0  0  0  0  0
   27.7145   12.7061  -11.5488 H   0  0  0  0  0  0  0  0  0  0  0  0
   28.6840   15.2015  -11.7483 H   0  0  0  0  0  0  0  0  0  0  0  0
   29.5246   15.5184  -13.3039 H   0  0  0  0  0  0  0  0  0  0  0  0
   27.8331   14.9138  -13.3039 H   0  0  0  0  0  0  0  0  0  0  0  0
   25.1844    8.1541   -5.2596 H   0  0  0  0  0  0  0  0  0  0  0  0
   24.6009    6.8878   -6.3922 H   0  0  0  0  0  0  0  0  0  0  0  0
   26.3330    7.3638   -6.3922 H   0  0  0  0  0  0  0  0  0  0  0  0
  1  2  2  0
  1  7  1  0
  1  5  1  0
  2  3  1  0
  3  4  1  0
  4  8  2  0
  4  6  1  0
  6 10  1  0
  6  7  2  0
  8  9  1  0
  9 17  1  0
  9 10  2  0
 10 20  1  0
 17 18  2  0
 18 19  1  0
 19 21  1  0
 19 20  2  0
  5 11  1  0
 11 12  2  0
 11 15  1  0
 12 13  1  0
 13 16  1  0
 13 14  1  0
 14 15  2  0
 15 22  1  0
  2 23  1  0
  3 24  1  0
  7 25  1  0
 14 26  1  0
 16 27  1  1
 16 28  1  0
 16 29  1  0
 17 30  1  0
 18 31  1  0
 20 32  1  0
 21 33  1  1
 21 34  1  0
 21 35  1  0
 22 36  1  1
 22 37  1  0
 22 38  1  0
M  END
>  <Pose ID>  (283)
530

>  <Score>  (283)
-6.059697151184082

>  <smiles>  (283)
Cc1ccc2nc3[nH]cc(Oc4nn(C)cc4C)cc-3c2c1

$$$$

     RDKit          3D

 38 40  0  0  0  0  0  0  0  0999 V2000
   28.0710    8.0470  -10.0890 C   0  0  0  0  0  0  0  0  0  0  0  0
   27.5200    7.2080   -9.1270 N   0  0  0  0  0  0  0  0  0  0  0  0
   26.2710    7.4930   -8.5900 C   0  0  0  0  0  0  0  0  0  0  0  0
   25.5710    8.6180   -9.0160 C   0  0  0  0  0  0  0  0  0  0  0  0
   26.1190    9.4530   -9.9790 N   0  0  0  0  0  0  0  0  0  0  0  0
   27.3650    9.1690  -10.5210 C   0  0  0  0  0  0  0  0  0  0  0  0
   24.4490    8.8710   -8.5330 O   0  0  0  0  0  0  0  0  0  0  0  0
   25.5290    6.8310   -7.6440 N   0  0  0  0  0  0  0  0  0  0  0  0
   24.9800    7.4370   -6.3320 C   0  0  0  0  0  0  0  0  0  0  0  0
   25.2790    8.7800   -6.1350 C   0  0  0  0  0  0  0  0  0  0  0  0
   24.7940    9.4450   -5.0140 N   0  0  0  0  0  0  0  0  0  0  0  0
   24.0090    8.7640   -4.0910 C   0  0  0  0  0  0  0  0  0  0  0  0
   23.7090    7.4210   -4.2890 C   0  0  0  0  0  0  0  0  0  0  0  0
   24.1960    6.7610   -5.4080 C   0  0  0  0  0  0  0  0  0  0  0  0
   23.4900    9.4760   -2.8960 C   0  0  0  0  0  0  0  0  0  0  0  0
   24.0150    9.3310   -1.7670 O   0  0  0  0  0  0  0  0  0  0  0  0
   22.3060   10.3770   -2.9760 N   0  0  0  0  0  0  0  0  0  0  0  0
   22.0810   11.5510   -2.1200 C   0  0  1  0  0  0  0  0  0  0  0  0
   21.5860   12.7250   -2.9380 C   0  0  1  0  0  0  0  0  0  0  0  0
   20.7450   11.9700   -4.0140 C   0  0  1  0  0  0  0  0  0  0  0  0
   21.3580   10.5460   -3.9400 C   0  0  0  0  0  0  0  0  0  0  0  0
   21.0200    9.6250   -4.7550 O   0  0  0  0  0  0  0  0  0  0  0  0
   27.9550   10.0740  -11.5740 C   0  0  1  0  0  0  0  0  0  0  0  0
   29.0633    7.8258  -10.5090 H   0  0  0  0  0  0  0  0  0  0  0  0
   25.6000   10.2856  -10.2925 H   0  0  0  0  0  0  0  0  0  0  0  0
   25.3185    5.8391   -7.8248 H   0  0  0  0  0  0  0  0  0  0  0  0
   25.9000    9.3176   -6.8667 H   0  0  0  0  0  0  0  0  0  0  0  0
   23.0864    6.8824   -3.5595 H   0  0  0  0  0  0  0  0  0  0  0  0
   23.9597    5.6979   -5.5633 H   0  0  0  0  0  0  0  0  0  0  0  0
   21.3302   11.3017   -1.3557 H   0  0  0  0  0  0  0  0  0  0  0  0
   23.0332   11.8287   -1.6445 H   0  0  0  0  0  0  0  0  0  0  0  0
   20.9647   13.4070   -2.3389 H   0  0  0  0  0  0  0  0  0  0  0  0
   22.3765   13.3755   -3.3404 H   0  0  0  0  0  0  0  0  0  0  0  0
   19.6758   11.9615   -3.7555 H   0  0  0  0  0  0  0  0  0  0  0  0
   20.7842   12.4245   -5.0150 H   0  0  0  0  0  0  0  0  0  0  0  0
   28.4937   10.9004  -11.0873 H   0  0  0  0  0  0  0  0  0  0  0  0
   28.6531    9.5003  -12.2013 H   0  0  0  0  0  0  0  0  0  0  0  0
   27.1484   10.4813  -12.2013 H   0  0  0  0  0  0  0  0  0  0  0  0
  9  8  1  0
  9 10  2  0
  9 14  1  0
 10 11  1  0
 11 12  2  0
 12 13  1  0
 12 15  1  0
 13 14  2  0
  1  6  2  0
  1  2  1  0
  2  3  2  0
  3  4  1  0
  3  8  1  0
  4  5  1  0
  4  7  2  0
  5  6  1  0
  6 23  1  0
 15 17  1  0
 15 16  2  0
 17 21  1  0
 17 18  1  0
 18 19  1  0
 19 20  1  0
 20 21  1  0
 21 22  2  0
  1 24  1  0
  5 25  1  0
  8 26  1  0
 10 27  1  0
 13 28  1  0
 14 29  1  0
 18 30  1  1
 18 31  1  0
 19 32  1  1
 19 33  1  0
 20 34  1  1
 20 35  1  0
 23 36  1  1
 23 37  1  0
 23 38  1  0
M  END
>  <Pose ID>  (284)
45

>  <Score>  (284)
-6.0589470863342285

>  <smiles>  (284)
Cc1cnc(Nc2ccc(C(=O)N3CCCC3=O)nc2)c(=O)[nH]1

$$$$

     RDKit          3D

 32 35  0  0  0  0  0  0  0  0999 V2000
   27.2910    7.8680  -10.2020 C   0  0  0  0  0  0  0  0  0  0  0  0
   28.4200    7.1360  -10.5340 C   0  0  0  0  0  0  0  0  0  0  0  0
   29.4040    7.7030  -11.3350 N   0  0  0  0  0  0  0  0  0  0  0  0
   26.4940    7.1220   -9.4210 N   0  0  0  0  0  0  0  0  0  0  0  0
   29.2600    9.0050  -11.7990 C   0  0  0  0  0  0  0  0  0  0  0  0
   28.1280    9.7380  -11.4650 C   0  0  0  0  0  0  0  0  0  0  0  0
   27.1440    9.1730  -10.6670 C   0  0  0  0  0  0  0  0  0  0  0  0
   30.0620    9.7570  -12.5700 N   0  0  0  0  0  0  0  0  0  0  0  0
   29.4830   10.9500  -12.7410 C   0  0  0  0  0  0  0  0  0  0  0  0
   28.2680   10.9300  -12.0660 C   0  0  0  0  0  0  0  0  0  0  0  0
   25.8820    7.6170   -8.2300 C   0  0  0  0  0  0  0  0  0  0  0  0
   25.2480    6.7110   -7.3870 N   0  0  0  0  0  0  0  0  0  0  0  0
   24.5380    7.1660   -6.2830 C   0  0  0  0  0  0  0  0  0  0  0  0
   24.4630    8.5310   -6.0200 C   0  0  0  0  0  0  0  0  0  0  0  0
   25.0970    9.4380   -6.8640 C   0  0  0  0  0  0  0  0  0  0  0  0
   25.8300    8.9760   -7.9520 C   0  0  0  0  0  0  0  0  0  0  0  0
   23.9730    6.3550   -5.5290 O   0  0  0  0  0  0  0  0  0  0  0  0
   29.8700   12.0870  -13.4410 C   0  0  0  0  0  0  0  0  0  0  0  0
   29.0420   13.2040  -13.4660 N   0  0  0  0  0  0  0  0  0  0  0  0
   27.8280   13.1830  -12.7910 C   0  0  0  0  0  0  0  0  0  0  0  0
   27.4400   12.0470  -12.0910 C   0  0  0  0  0  0  0  0  0  0  0  0
   28.5372    6.1068  -10.1637 H   0  0  0  0  0  0  0  0  0  0  0  0
   30.2411    7.1575  -11.5851 H   0  0  0  0  0  0  0  0  0  0  0  0
   26.3153    6.1451   -9.6942 H   0  0  0  0  0  0  0  0  0  0  0  0
   26.2488    9.7546  -10.4017 H   0  0  0  0  0  0  0  0  0  0  0  0
   25.3049    5.7011   -7.5814 H   0  0  0  0  0  0  0  0  0  0  0  0
   23.9027    8.8927   -5.1452 H   0  0  0  0  0  0  0  0  0  0  0  0
   25.0185   10.5181   -6.6710 H   0  0  0  0  0  0  0  0  0  0  0  0
   26.3694    9.6887   -8.5932 H   0  0  0  0  0  0  0  0  0  0  0  0
   30.8314   12.1031  -13.9753 H   0  0  0  0  0  0  0  0  0  0  0  0
   27.1731   14.0666  -12.8106 H   0  0  0  0  0  0  0  0  0  0  0  0
   26.4785   12.0313  -11.5570 H   0  0  0  0  0  0  0  0  0  0  0  0
  1  7  1  0
  1  2  2  0
  1  4  1  0
  2  3  1  0
  3  5  1  0
  5  8  2  0
  5  6  1  0
  6 10  1  0
  6  7  2  0
  8  9  1  0
  9 18  1  0
  9 10  2  0
 10 21  1  0
 18 19  2  0
 19 20  1  0
 20 21  2  0
  4 11  1  0
 11 16  2  0
 11 12  1  0
 12 13  1  0
 13 14  1  0
 13 17  2  0
 14 15  2  0
 15 16  1  0
  2 22  1  0
  3 23  1  0
  4 24  1  0
  7 25  1  0
 12 26  1  0
 14 27  1  0
 15 28  1  0
 16 29  1  0
 18 30  1  0
 20 31  1  0
 21 32  1  0
M  END
>  <Pose ID>  (285)
113

>  <Score>  (285)
-6.056772232055664

>  <smiles>  (285)
O=c1cccc(Nc2c[nH]c3nc4cnccc4c-3c2)[nH]1

$$$$

     RDKit          3D

 16 17  0  0  0  0  0  0  0  0999 V2000
   27.9480    7.2750  -10.1010 C   0  0  0  0  0  0  0  0  0  0  0  0
   27.0430    7.0330   -9.0730 N   0  0  0  0  0  0  0  0  0  0  0  0
   26.2390    8.0630   -8.5990 C   0  0  0  0  0  0  0  0  0  0  0  0
   26.3380    9.3330   -9.1530 C   0  0  0  0  0  0  0  0  0  0  0  0
   25.4130   10.3230   -8.7190 C   0  0  0  0  0  0  0  0  0  0  0  0
   24.5430   10.0610   -7.6670 C   0  0  0  0  0  0  0  0  0  0  0  0
   24.5330    8.8070   -7.0700 N   0  0  0  0  0  0  0  0  0  0  0  0
   25.3600    7.7980   -7.5140 C   0  0  0  0  0  0  0  0  0  0  0  0
   28.0470    8.5460  -10.6540 C   0  0  0  0  0  0  0  0  0  0  0  0
   27.2420    9.5750  -10.1800 C   0  0  0  0  0  0  0  0  0  0  0  0
   28.5852    6.4606  -10.4762 H   0  0  0  0  0  0  0  0  0  0  0  0
   25.3861   11.3023   -9.2193 H   0  0  0  0  0  0  0  0  0  0  0  0
   23.8625   10.8468   -7.3073 H   0  0  0  0  0  0  0  0  0  0  0  0
   25.3402    6.8066   -7.0378 H   0  0  0  0  0  0  0  0  0  0  0  0
   28.7627    8.7377  -11.4671 H   0  0  0  0  0  0  0  0  0  0  0  0
   27.3205   10.5810  -10.6179 H   0  0  0  0  0  0  0  0  0  0  0  0
  1  9  2  0
  1  2  1  0
  2  3  2  0
  3  4  1  0
  3  8  1  0
  4 10  2  0
  4  5  1  0
  5  6  2  0
  6  7  1  0
  7  8  2  0
  9 10  1  0
  1 11  1  0
  5 12  1  0
  6 13  1  0
  8 14  1  0
  9 15  1  0
 10 16  1  0
M  END
>  <Pose ID>  (286)
38

>  <Score>  (286)
-6.0563225746154785

>  <smiles>  (286)
c1cnc2cnccc2c1

$$$$

     RDKit          3D

 38 41  0  0  0  0  0  0  0  0999 V2000
   28.0770    7.8960  -10.5410 C   0  0  0  0  0  0  0  0  0  0  0  0
   28.9120    7.1130  -11.3250 C   0  0  0  0  0  0  0  0  0  0  0  0
   29.8180    7.7150  -12.1920 N   0  0  0  0  0  0  0  0  0  0  0  0
   29.8870    9.0990  -12.2740 C   0  0  0  0  0  0  0  0  0  0  0  0
   27.1930    7.1170   -9.6800 O   0  0  0  0  0  0  0  0  0  0  0  0
   29.0500    9.8840  -11.4880 C   0  0  0  0  0  0  0  0  0  0  0  0
   28.1450    9.2830  -10.6220 C   0  0  0  0  0  0  0  0  0  0  0  0
   30.6670    9.9010  -13.0260 N   0  0  0  0  0  0  0  0  0  0  0  0
   30.3490   11.2120  -12.7500 C   0  0  0  0  0  0  0  0  0  0  0  0
   29.3300   11.0310  -11.7880 C   0  0  0  0  0  0  0  0  0  0  0  0
   26.4760    7.6470   -8.6020 C   0  0  0  0  0  0  0  0  0  0  0  0
   25.8070    8.8420   -8.8150 N   0  0  0  0  0  0  0  0  0  0  0  0
   25.1950    9.2040   -7.6300 N   0  0  0  0  0  0  0  0  0  0  0  0
   25.4620    8.2650   -6.7100 C   0  0  0  0  0  0  0  0  0  0  0  0
   26.2150    7.3190   -7.2810 C   0  0  0  0  0  0  0  0  0  0  0  0
   24.4700   10.2650   -7.4580 C   0  0  0  0  0  0  0  0  0  0  0  0
   23.8840   10.5460   -6.2290 C   0  0  0  0  0  0  0  0  0  0  0  0
   24.3200   11.1520   -8.5170 N   0  0  0  0  0  0  0  0  0  0  0  0
   23.1480   11.7120   -6.0600 C   0  0  0  0  0  0  0  0  0  0  0  0
   23.5840   12.3190   -8.3480 C   0  0  0  0  0  0  0  0  0  0  0  0
   23.0300   12.6180   -7.1370 C   0  0  0  0  0  0  0  0  0  0  0  0
   28.6210   12.2060  -11.1620 C   0  0  1  0  0  0  0  0  0  0  0  0
   27.2870   12.4300  -11.8960 C   0  0  1  0  0  0  0  0  0  0  0  0
   28.8576    6.0162  -11.2610 H   0  0  0  0  0  0  0  0  0  0  0  0
   30.4381    7.1334  -12.7735 H   0  0  0  0  0  0  0  0  0  0  0  0
   27.4826    9.9036  -10.0007 H   0  0  0  0  0  0  0  0  0  0  0  0
   30.7703   12.1404  -13.1629 H   0  0  0  0  0  0  0  0  0  0  0  0
   25.1200    8.2720   -5.6646 H   0  0  0  0  0  0  0  0  0  0  0  0
   26.5754    6.4112   -6.7751 H   0  0  0  0  0  0  0  0  0  0  0  0
   24.0032    9.8447   -5.3900 H   0  0  0  0  0  0  0  0  0  0  0  0
   22.6620   11.9275   -5.0970 H   0  0  0  0  0  0  0  0  0  0  0  0
   23.4471   13.0062   -9.1960 H   0  0  0  0  0  0  0  0  0  0  0  0
   22.4904   13.5667   -6.9995 H   0  0  0  0  0  0  0  0  0  0  0  0
   28.4276   11.9976  -10.0994 H   0  0  0  0  0  0  0  0  0  0  0  0
   29.2475   13.1065  -11.2430 H   0  0  0  0  0  0  0  0  0  0  0  0
   26.4814   12.5653  -11.1593 H   0  0  0  0  0  0  0  0  0  0  0  0
   27.3618   13.3282  -12.5266 H   0  0  0  0  0  0  0  0  0  0  0  0
   27.0643   11.5567  -12.5266 H   0  0  0  0  0  0  0  0  0  0  0  0
  1  2  2  0
  1  7  1  0
  1  5  1  0
  2  3  1  0
  3  4  1  0
  4  8  2  0
  4  6  1  0
  6 10  1  0
  6  7  2  0
  8  9  1  0
  9 10  2  0
 10 22  1  0
 22 23  1  0
  5 11  1  0
 11 12  2  0
 11 15  1  0
 12 13  1  0
 13 16  1  0
 13 14  1  0
 14 15  2  0
 16 18  1  0
 16 17  2  0
 17 19  1  0
 18 20  2  0
 19 21  2  0
 20 21  1  0
  2 24  1  0
  3 25  1  0
  7 26  1  0
  9 27  1  0
 14 28  1  0
 15 29  1  0
 17 30  1  0
 19 31  1  0
 20 32  1  0
 21 33  1  0
 22 34  1  1
 22 35  1  0
 23 36  1  1
 23 37  1  0
 23 38  1  0
M  END
>  <Pose ID>  (287)
396

>  <Score>  (287)
-6.054574966430664

>  <smiles>  (287)
CCc1cnc2[nH]cc(Oc3ccn(-c4ccccn4)n3)cc1-2

$$$$

     RDKit          3D

 22 24  0  0  0  0  0  0  0  0999 V2000
   27.9510    7.2580  -10.4110 C   0  0  0  0  0  0  0  0  0  0  0  0
   27.0180    6.8790   -9.4520 N   0  0  0  0  0  0  0  0  0  0  0  0
   26.1440    7.8210   -8.9260 C   0  0  0  0  0  0  0  0  0  0  0  0
   26.2000    9.1420   -9.3570 C   0  0  0  0  0  0  0  0  0  0  0  0
   27.1320    9.5190  -10.3170 N   0  0  0  0  0  0  0  0  0  0  0  0
   28.0070    8.5780  -10.8420 C   0  0  0  0  0  0  0  0  0  0  0  0
   25.4060   10.2070   -8.9470 C   0  0  0  0  0  0  0  0  0  0  0  0
   24.3760   10.0390   -8.0280 C   0  0  0  0  0  0  0  0  0  0  0  0
   25.6420   11.4590   -9.5020 C   0  0  0  0  0  0  0  0  0  0  0  0
   23.5850   11.1200   -7.6640 N   0  0  0  0  0  0  0  0  0  0  0  0
   23.8210   12.3720   -8.2210 C   0  0  0  0  0  0  0  0  0  0  0  0
   26.7950   11.0830  -10.4590 N   0  0  0  0  0  0  0  0  0  0  0  0
   24.8500   12.5420   -9.1400 C   0  0  0  0  0  0  0  0  0  0  0  0
   29.0200    8.9890  -11.8830 C   0  0  1  0  0  0  0  0  0  0  0  0
   28.6445    6.5131  -10.8283 H   0  0  0  0  0  0  0  0  0  0  0  0
   25.4060    7.5219   -8.1671 H   0  0  0  0  0  0  0  0  0  0  0  0
   24.1878    9.0481   -7.5889 H   0  0  0  0  0  0  0  0  0  0  0  0
   23.1931   13.2284   -7.9342 H   0  0  0  0  0  0  0  0  0  0  0  0
   25.0371   13.5326   -9.5802 H   0  0  0  0  0  0  0  0  0  0  0  0
   29.9288    9.3577  -11.3848 H   0  0  0  0  0  0  0  0  0  0  0  0
   29.2724    8.1221  -12.5114 H   0  0  0  0  0  0  0  0  0  0  0  0
   28.5970    9.7866  -12.5114 H   0  0  0  0  0  0  0  0  0  0  0  0
  1  6  2  0
  1  2  1  0
  2  3  2  0
  3  4  1  0
  4  5  1  0
  4  7  2  0
  5  6  1  0
  5 12  1  0
  6 14  1  0
  7  9  1  0
  7  8  1  0
  8 10  2  0
  9 12  2  0
  9 13  1  0
 10 11  1  0
 11 13  2  0
  1 15  1  0
  3 16  1  0
  8 17  1  0
 11 18  1  0
 13 19  1  0
 14 20  1  1
 14 21  1  0
 14 22  1  0
M  END
>  <Pose ID>  (288)
50

>  <Score>  (288)
-6.054184436798096

>  <smiles>  (288)
Cc1cncc2c3cnccc3nn12

$$$$

     RDKit          3D

 37 40  0  0  0  0  0  0  0  0999 V2000
   27.8680    7.8650  -10.2580 C   0  0  0  0  0  0  0  0  0  0  0  0
   28.8150    7.1360  -10.9630 C   0  0  0  0  0  0  0  0  0  0  0  0
   29.6620    7.7780  -11.8590 N   0  0  0  0  0  0  0  0  0  0  0  0
   29.5600    9.1520  -12.0500 C   0  0  0  0  0  0  0  0  0  0  0  0
   27.0630    7.0480   -9.3550 O   0  0  0  0  0  0  0  0  0  0  0  0
   28.6100    9.8820  -11.3430 C   0  0  0  0  0  0  0  0  0  0  0  0
   27.7660    9.2390  -10.4470 C   0  0  0  0  0  0  0  0  0  0  0  0
   30.2550    9.9860  -12.8470 N   0  0  0  0  0  0  0  0  0  0  0  0
   29.7690   11.2640  -12.6810 C   0  0  0  0  0  0  0  0  0  0  0  0
   28.7560   11.0290  -11.7260 C   0  0  0  0  0  0  0  0  0  0  0  0
   26.2570    7.5640   -8.3340 C   0  0  0  0  0  0  0  0  0  0  0  0
   25.4510    8.6440   -8.6530 N   0  0  0  0  0  0  0  0  0  0  0  0
   24.8040    8.9920   -7.5640 N   0  0  0  0  0  0  0  0  0  0  0  0
   25.0810    8.2140   -6.4470 C   0  0  0  0  0  0  0  0  0  0  0  0
   26.0010    7.3070   -6.9980 C   0  0  0  0  0  0  0  0  0  0  0  0
   23.8920   10.0370   -7.4730 C   0  0  0  0  0  0  0  0  0  0  0  0
   23.2560   10.3040   -6.2660 C   0  0  0  0  0  0  0  0  0  0  0  0
   23.5350    9.5250   -5.1500 C   0  0  0  0  0  0  0  0  0  0  0  0
   24.4450    8.4790   -5.2390 N   0  0  0  0  0  0  0  0  0  0  0  0
   22.8460    9.8140   -3.8390 C   0  0  1  0  0  0  0  0  0  0  0  0
   30.1980   12.5540  -13.3360 C   0  0  1  0  0  0  0  0  0  0  0  0
   23.0030    8.7230   -2.8020 C   0  0  1  0  0  0  0  0  0  0  0  0
   28.8956    6.0493  -10.8128 H   0  0  0  0  0  0  0  0  0  0  0  0
   30.3651    7.2362  -12.3815 H   0  0  0  0  0  0  0  0  0  0  0  0
   27.0164    9.8168   -9.8865 H   0  0  0  0  0  0  0  0  0  0  0  0
   28.1261   11.8461  -11.3445 H   0  0  0  0  0  0  0  0  0  0  0  0
   26.4653    6.4858   -6.4323 H   0  0  0  0  0  0  0  0  0  0  0  0
   23.6732   10.6536   -8.3573 H   0  0  0  0  0  0  0  0  0  0  0  0
   22.5334   11.1303   -6.1947 H   0  0  0  0  0  0  0  0  0  0  0  0
   23.2644   10.7442   -3.4271 H   0  0  0  0  0  0  0  0  0  0  0  0
   21.7706    9.8903   -4.0572 H   0  0  0  0  0  0  0  0  0  0  0  0
   30.4443   13.2946  -12.5608 H   0  0  0  0  0  0  0  0  0  0  0  0
   31.0835   12.3704  -13.9623 H   0  0  0  0  0  0  0  0  0  0  0  0
   29.3790   12.9373  -13.9623 H   0  0  0  0  0  0  0  0  0  0  0  0
   22.9398    9.1621   -1.7954 H   0  0  0  0  0  0  0  0  0  0  0  0
   22.2027    7.9790   -2.9284 H   0  0  0  0  0  0  0  0  0  0  0  0
   23.9806    8.2349   -2.9284 H   0  0  0  0  0  0  0  0  0  0  0  0
  5  1  1  0
  5 11  1  0
  1  2  2  0
  1  7  1  0
  2  3  1  0
  3  4  1  0
  4  8  2  0
  4  6  1  0
  6 10  1  0
  6  7  2  0
  8  9  1  0
  9 21  1  0
  9 10  2  0
 11 12  2  0
 11 15  1  0
 12 13  1  0
 13 16  1  0
 13 14  1  0
 14 15  2  0
 14 19  1  0
 16 17  2  0
 17 18  1  0
 18 19  2  0
 18 20  1  0
 20 22  1  0
  2 23  1  0
  3 24  1  0
  7 25  1  0
 10 26  1  0
 15 27  1  0
 16 28  1  0
 17 29  1  0
 20 30  1  1
 20 31  1  0
 21 32  1  1
 21 33  1  0
 21 34  1  0
 22 35  1  1
 22 36  1  0
 22 37  1  0
M  END
>  <Pose ID>  (289)
386

>  <Score>  (289)
-6.045752048492432

>  <smiles>  (289)
CCc1ccn2nc(Oc3c[nH]c4nc(C)cc-4c3)cc2n1

$$$$

     RDKit          3D

 36 39  0  0  0  0  0  0  0  0999 V2000
   27.6950    7.7160  -10.1940 C   0  0  0  0  0  0  0  0  0  0  0  0
   28.5520    7.0490  -11.0590 C   0  0  0  0  0  0  0  0  0  0  0  0
   29.3260    7.7680  -11.9620 N   0  0  0  0  0  0  0  0  0  0  0  0
   29.2450    9.1550  -11.9990 C   0  0  0  0  0  0  0  0  0  0  0  0
   26.9610    6.8200   -9.3030 O   0  0  0  0  0  0  0  0  0  0  0  0
   28.3880    9.8220  -11.1300 C   0  0  0  0  0  0  0  0  0  0  0  0
   27.6150    9.1030  -10.2280 C   0  0  0  0  0  0  0  0  0  0  0  0
   29.8800   10.0580  -12.7710 N   0  0  0  0  0  0  0  0  0  0  0  0
   29.4490   11.3180  -12.4250 C   0  0  0  0  0  0  0  0  0  0  0  0
   28.5260   11.0020  -11.4050 C   0  0  0  0  0  0  0  0  0  0  0  0
   26.2720    7.2420   -8.1590 C   0  0  0  0  0  0  0  0  0  0  0  0
   25.4680    8.3620   -8.2850 N   0  0  0  0  0  0  0  0  0  0  0  0
   24.9080    8.6240   -7.0470 N   0  0  0  0  0  0  0  0  0  0  0  0
   25.3340    7.6920   -6.1840 C   0  0  0  0  0  0  0  0  0  0  0  0
   26.1390    6.8480   -6.8410 C   0  0  0  0  0  0  0  0  0  0  0  0
   24.0820    9.6640   -6.7860 C   0  0  0  0  0  0  0  0  0  0  0  0
   24.5110   10.9490   -7.0960 C   0  0  0  0  0  0  0  0  0  0  0  0
   22.9770    9.4810   -5.9640 C   0  0  0  0  0  0  0  0  0  0  0  0
   22.3010   10.5810   -5.4490 N   0  0  0  0  0  0  0  0  0  0  0  0
   23.8360   12.0510   -6.5830 C   0  0  0  0  0  0  0  0  0  0  0  0
   22.7310   11.8570   -5.7470 C   0  0  0  0  0  0  0  0  0  0  0  0
   22.5920    8.3300   -5.6870 O   0  0  0  0  0  0  0  0  0  0  0  0
   21.1330   10.6250   -4.5820 C   0  0  1  0  0  0  0  0  0  0  0  0
   28.6184    5.9514  -11.0296 H   0  0  0  0  0  0  0  0  0  0  0  0
   29.9604    7.2724  -12.6045 H   0  0  0  0  0  0  0  0  0  0  0  0
   26.9389    9.6316   -9.5399 H   0  0  0  0  0  0  0  0  0  0  0  0
   29.7419   12.2978  -12.8301 H   0  0  0  0  0  0  0  0  0  0  0  0
   27.9570   11.7846  -10.8819 H   0  0  0  0  0  0  0  0  0  0  0  0
   25.0679    7.6308   -5.1184 H   0  0  0  0  0  0  0  0  0  0  0  0
   26.6249    5.9673   -6.3957 H   0  0  0  0  0  0  0  0  0  0  0  0
   25.3852   11.0944   -7.7477 H   0  0  0  0  0  0  0  0  0  0  0  0
   24.1687   13.0692   -6.8329 H   0  0  0  0  0  0  0  0  0  0  0  0
   22.2033   12.7254   -5.3259 H   0  0  0  0  0  0  0  0  0  0  0  0
   21.4561   10.6128   -3.5306 H   0  0  0  0  0  0  0  0  0  0  0  0
   20.5638   11.5452   -4.7800 H   0  0  0  0  0  0  0  0  0  0  0  0
   20.4962    9.7502   -4.7800 H   0  0  0  0  0  0  0  0  0  0  0  0
 11  5  1  0
 11 12  2  0
 11 15  1  0
 12 13  1  0
 13 16  1  0
 13 14  1  0
 14 15  2  0
 16 17  2  0
 16 18  1  0
 17 20  1  0
 18 22  2  0
 18 19  1  0
 19 21  1  0
 19 23  1  0
 20 21  2  0
  5  1  1  0
  1  2  2  0
  1  7  1  0
  2  3  1  0
  3  4  1  0
  4  8  2  0
  4  6  1  0
  6 10  1  0
  6  7  2  0
  8  9  1  0
  9 10  2  0
  2 24  1  0
  3 25  1  0
  7 26  1  0
  9 27  1  0
 10 28  1  0
 14 29  1  0
 15 30  1  0
 17 31  1  0
 20 32  1  0
 21 33  1  0
 23 34  1  1
 23 35  1  0
 23 36  1  0
M  END
>  <Pose ID>  (290)
468

>  <Score>  (290)
-6.035678386688232

>  <smiles>  (290)
Cn1cccc(-n2ccc(Oc3c[nH]c4nccc-4c3)n2)c1=O

$$$$

     RDKit          3D

 39 42  0  0  0  0  0  0  0  0999 V2000
   27.3700    7.9290  -10.1920 C   0  0  0  0  0  0  0  0  0  0  0  0
   28.4970    7.1810  -10.4940 C   0  0  0  0  0  0  0  0  0  0  0  0
   29.4790    7.7080  -11.3250 N   0  0  0  0  0  0  0  0  0  0  0  0
   26.5770    7.2220   -9.3730 N   0  0  0  0  0  0  0  0  0  0  0  0
   29.3330    8.9850  -11.8500 C   0  0  0  0  0  0  0  0  0  0  0  0
   28.2040    9.7350  -11.5460 C   0  0  0  0  0  0  0  0  0  0  0  0
   27.2230    9.2110  -10.7170 C   0  0  0  0  0  0  0  0  0  0  0  0
   30.1340    9.6980  -12.6630 N   0  0  0  0  0  0  0  0  0  0  0  0
   29.5440   10.9190  -12.9010 C   0  0  0  0  0  0  0  0  0  0  0  0
   28.3570   10.7820  -12.1520 C   0  0  0  0  0  0  0  0  0  0  0  0
   25.9700    7.7750   -8.2030 C   0  0  0  0  0  0  0  0  0  0  0  0
   25.3400    6.9110   -7.3160 N   0  0  0  0  0  0  0  0  0  0  0  0
   24.6360    7.4210   -6.2300 C   0  0  0  0  0  0  0  0  0  0  0  0
   24.5640    8.7950   -6.0340 C   0  0  0  0  0  0  0  0  0  0  0  0
   25.1940    9.6600   -6.9220 C   0  0  0  0  0  0  0  0  0  0  0  0
   25.9220    9.1450   -7.9910 C   0  0  0  0  0  0  0  0  0  0  0  0
   23.9300    6.7740   -5.2130 C   0  0  0  0  0  0  0  0  0  0  0  0
   23.5590    7.7660   -4.3320 N   0  0  0  0  0  0  0  0  0  0  0  0
   23.9230    8.9520   -4.6940 C   0  0  0  0  0  0  0  0  0  0  0  0
   23.7400   10.2340   -3.9210 C   0  0  1  0  0  0  0  0  0  0  0  0
   22.5970   11.0030   -4.4680 C   0  0  1  0  0  0  0  0  0  0  0  0
   27.3230   11.8790  -12.1020 C   0  0  1  0  0  0  0  0  0  0  0  0
   28.6145    6.1703  -10.0761 H   0  0  0  0  0  0  0  0  0  0  0  0
   30.3152    7.1509  -11.5513 H   0  0  0  0  0  0  0  0  0  0  0  0
   26.3969    6.2332   -9.5980 H   0  0  0  0  0  0  0  0  0  0  0  0
   26.3306    9.8067  -10.4746 H   0  0  0  0  0  0  0  0  0  0  0  0
   29.8995   11.7656  -13.5067 H   0  0  0  0  0  0  0  0  0  0  0  0
   25.3942    5.8929   -7.4625 H   0  0  0  0  0  0  0  0  0  0  0  0
   25.1173   10.7481   -6.7802 H   0  0  0  0  0  0  0  0  0  0  0  0
   26.4596    9.8250   -8.6681 H   0  0  0  0  0  0  0  0  0  0  0  0
   23.7153    5.6982   -5.1325 H   0  0  0  0  0  0  0  0  0  0  0  0
   23.5460    9.9967   -2.8646 H   0  0  0  0  0  0  0  0  0  0  0  0
   24.6543   10.8393   -4.0082 H   0  0  0  0  0  0  0  0  0  0  0  0
   21.9967   11.4069   -3.6394 H   0  0  0  0  0  0  0  0  0  0  0  0
   22.9744   11.8316   -5.0853 H   0  0  0  0  0  0  0  0  0  0  0  0
   21.9717   10.3412   -5.0853 H   0  0  0  0  0  0  0  0  0  0  0  0
   27.0952   12.1207  -11.0533 H   0  0  0  0  0  0  0  0  0  0  0  0
   27.7134   12.7742  -12.6081 H   0  0  0  0  0  0  0  0  0  0  0  0
   26.4063   11.5421  -12.6081 H   0  0  0  0  0  0  0  0  0  0  0  0
  4  1  1  0
  4 11  1  0
  1  7  1  0
  1  2  2  0
  2  3  1  0
  3  5  1  0
  5  8  2  0
  5  6  1  0
  6 10  1  0
  6  7  2  0
  8  9  1  0
  9 10  2  0
 10 22  1  0
 11 16  2  0
 11 12  1  0
 12 13  1  0
 13 14  1  0
 13 17  2  0
 14 15  2  0
 14 19  1  0
 15 16  1  0
 17 18  1  0
 18 19  2  0
 19 20  1  0
 20 21  1  0
  2 23  1  0
  3 24  1  0
  4 25  1  0
  7 26  1  0
  9 27  1  0
 12 28  1  0
 15 29  1  0
 16 30  1  0
 17 31  1  0
 20 32  1  1
 20 33  1  0
 21 34  1  1
 21 35  1  0
 21 36  1  0
 22 37  1  1
 22 38  1  0
 22 39  1  0
M  END
>  <Pose ID>  (291)
79

>  <Score>  (291)
-6.033612251281738

>  <smiles>  (291)
CCc1ncc2[nH]c(Nc3c[nH]c4ncc(C)c-4c3)ccc1-2

$$$$

     RDKit          3D

 37 40  0  0  0  0  0  0  0  0999 V2000
   27.8990    7.8180  -10.2710 C   0  0  0  0  0  0  0  0  0  0  0  0
   28.8470    7.0690  -10.9550 C   0  0  0  0  0  0  0  0  0  0  0  0
   29.7150    7.6920  -11.8450 N   0  0  0  0  0  0  0  0  0  0  0  0
   29.6350    9.0650  -12.0490 C   0  0  0  0  0  0  0  0  0  0  0  0
   27.0700    7.0200   -9.3730 O   0  0  0  0  0  0  0  0  0  0  0  0
   28.6850    9.8150  -11.3630 C   0  0  0  0  0  0  0  0  0  0  0  0
   27.8190    9.1910  -10.4730 C   0  0  0  0  0  0  0  0  0  0  0  0
   30.3530    9.8820  -12.8440 N   0  0  0  0  0  0  0  0  0  0  0  0
   29.8820   11.1690  -12.6960 C   0  0  0  0  0  0  0  0  0  0  0  0
   28.8520   10.9560  -11.7540 C   0  0  0  0  0  0  0  0  0  0  0  0
   26.2570    7.5570   -8.3670 C   0  0  0  0  0  0  0  0  0  0  0  0
   25.4710    8.6450   -8.7090 N   0  0  0  0  0  0  0  0  0  0  0  0
   24.8140    9.0110   -7.6310 N   0  0  0  0  0  0  0  0  0  0  0  0
   25.0630    8.2400   -6.5040 C   0  0  0  0  0  0  0  0  0  0  0  0
   25.9780    7.3150   -7.0330 C   0  0  0  0  0  0  0  0  0  0  0  0
   23.9140   10.0700   -7.5630 C   0  0  0  0  0  0  0  0  0  0  0  0
   23.2650   10.3570   -6.3690 C   0  0  0  0  0  0  0  0  0  0  0  0
   23.5170    9.5840   -5.2410 C   0  0  0  0  0  0  0  0  0  0  0  0
   24.4140    8.5250   -5.3080 N   0  0  0  0  0  0  0  0  0  0  0  0
   22.8130    9.8950   -3.9430 C   0  0  1  0  0  0  0  0  0  0  0  0
   30.3390   12.4460  -13.3560 C   0  0  1  0  0  0  0  0  0  0  0  0
   29.9290   13.7180  -12.7730 C   0  0  1  0  0  0  0  0  0  0  0  0
   28.9115    5.9829  -10.7929 H   0  0  0  0  0  0  0  0  0  0  0  0
   30.4175    7.1361  -12.3533 H   0  0  0  0  0  0  0  0  0  0  0  0
   27.0697    9.7840   -9.9280 H   0  0  0  0  0  0  0  0  0  0  0  0
   28.2275   11.7848  -11.3892 H   0  0  0  0  0  0  0  0  0  0  0  0
   26.4221    6.4923   -6.4534 H   0  0  0  0  0  0  0  0  0  0  0  0
   23.7162   10.6808   -8.4562 H   0  0  0  0  0  0  0  0  0  0  0  0
   22.5532   11.1940   -6.3159 H   0  0  0  0  0  0  0  0  0  0  0  0
   23.4579    9.6101   -3.0987 H   0  0  0  0  0  0  0  0  0  0  0  0
   22.5969   10.9724   -3.8921 H   0  0  0  0  0  0  0  0  0  0  0  0
   21.8710    9.3293   -3.8921 H   0  0  0  0  0  0  0  0  0  0  0  0
   31.4389   12.4319  -13.3629 H   0  0  0  0  0  0  0  0  0  0  0  0
   29.8470   12.4307  -14.3397 H   0  0  0  0  0  0  0  0  0  0  0  0
   29.9531   13.6432  -11.6758 H   0  0  0  0  0  0  0  0  0  0  0  0
   30.6171   14.5108  -13.1017 H   0  0  0  0  0  0  0  0  0  0  0  0
   28.9075   13.9597  -13.1017 H   0  0  0  0  0  0  0  0  0  0  0  0
  1  2  2  0
  1  7  1  0
  1  5  1  0
  2  3  1  0
  3  4  1  0
  4  8  2  0
  4  6  1  0
  6 10  1  0
  6  7  2  0
  8  9  1  0
  9 21  1  0
  9 10  2  0
 21 22  1  0
  5 11  1  0
 11 12  2  0
 11 15  1  0
 12 13  1  0
 13 16  1  0
 13 14  1  0
 14 15  2  0
 14 19  1  0
 16 17  2  0
 17 18  1  0
 18 19  2  0
 18 20  1  0
  2 23  1  0
  3 24  1  0
  7 25  1  0
 10 26  1  0
 15 27  1  0
 16 28  1  0
 17 29  1  0
 20 30  1  1
 20 31  1  0
 20 32  1  0
 21 33  1  6
 21 34  1  0
 22 35  1  1
 22 36  1  0
 22 37  1  0
M  END
>  <Pose ID>  (292)
385

>  <Score>  (292)
-6.031157970428467

>  <smiles>  (292)
CCc1cc2cc(Oc3cc4nc(C)ccn4n3)c[nH]c-2n1

$$$$

     RDKit          3D

 36 39  0  0  0  0  0  0  0  0999 V2000
   27.3120    8.0390  -10.2600 C   0  0  0  0  0  0  0  0  0  0  0  0
   28.2920    7.2090  -10.7820 C   0  0  0  0  0  0  0  0  0  0  0  0
   29.2840    7.7340  -11.6000 N   0  0  0  0  0  0  0  0  0  0  0  0
   26.4760    7.3140   -9.4990 N   0  0  0  0  0  0  0  0  0  0  0  0
   29.2970    9.0930  -11.8920 C   0  0  0  0  0  0  0  0  0  0  0  0
   28.3160    9.9240  -11.3670 C   0  0  0  0  0  0  0  0  0  0  0  0
   27.3240    9.4010  -10.5510 C   0  0  0  0  0  0  0  0  0  0  0  0
   30.1420    9.8230  -12.6420 N   0  0  0  0  0  0  0  0  0  0  0  0
   29.7260   11.1350  -12.6240 C   0  0  0  0  0  0  0  0  0  0  0  0
   28.5830   11.0310  -11.8000 C   0  0  0  0  0  0  0  0  0  0  0  0
   26.0380    7.7280   -8.2060 C   0  0  0  0  0  0  0  0  0  0  0  0
   25.3460    6.8150   -7.4210 N   0  0  0  0  0  0  0  0  0  0  0  0
   24.7990    7.2160   -6.2060 C   0  0  0  0  0  0  0  0  0  0  0  0
   24.9470    8.5300   -5.7800 C   0  0  0  0  0  0  0  0  0  0  0  0
   25.6400    9.4450   -6.5660 C   0  0  0  0  0  0  0  0  0  0  0  0
   26.2090    9.0320   -7.7650 C   0  0  0  0  0  0  0  0  0  0  0  0
   24.1800    6.3990   -5.5020 O   0  0  0  0  0  0  0  0  0  0  0  0
   25.9010   10.8140   -6.3760 C   0  0  0  0  0  0  0  0  0  0  0  0
   26.5970   11.5770   -7.1960 N   0  0  0  0  0  0  0  0  0  0  0  0
   26.6670   12.9220   -6.7290 C   0  0  0  0  0  0  0  0  0  0  0  0
   25.5590   11.7940   -5.3230 C   0  0  0  0  0  0  0  0  0  0  0  0
   25.9630   12.9800   -5.5490 O   0  0  0  0  0  0  0  0  0  0  0  0
   27.7340   12.2330  -11.4730 C   0  0  1  0  0  0  0  0  0  0  0  0
   28.2839    6.1342  -10.5482 H   0  0  0  0  0  0  0  0  0  0  0  0
   30.0101    7.1164  -11.9903 H   0  0  0  0  0  0  0  0  0  0  0  0
   26.1342    6.4148   -9.8671 H   0  0  0  0  0  0  0  0  0  0  0  0
   26.5483   10.0605  -10.1345 H   0  0  0  0  0  0  0  0  0  0  0  0
   30.1618   12.0180  -13.1143 H   0  0  0  0  0  0  0  0  0  0  0  0
   25.2377    5.8410   -7.7381 H   0  0  0  0  0  0  0  0  0  0  0  0
   24.5154    8.8475   -4.8193 H   0  0  0  0  0  0  0  0  0  0  0  0
   26.7967    9.7414   -8.3660 H   0  0  0  0  0  0  0  0  0  0  0  0
   27.1870   13.7574   -7.2206 H   0  0  0  0  0  0  0  0  0  0  0  0
   24.9998   11.5201   -4.4162 H   0  0  0  0  0  0  0  0  0  0  0  0
   27.6573   12.3416  -10.3811 H   0  0  0  0  0  0  0  0  0  0  0  0
   28.1962   13.1354  -11.8997 H   0  0  0  0  0  0  0  0  0  0  0  0
   26.7290   12.0991  -11.8997 H   0  0  0  0  0  0  0  0  0  0  0  0
  4  1  1  0
  4 11  1  0
  1  2  2  0
  1  7  1  0
  2  3  1  0
  3  5  1  0
  5  8  2  0
  5  6  1  0
  6 10  1  0
  6  7  2  0
  8  9  1  0
  9 10  2  0
 10 23  1  0
 11 16  2  0
 11 12  1  0
 12 13  1  0
 13 14  1  0
 13 17  2  0
 14 15  2  0
 15 16  1  0
 15 18  1  0
 18 19  1  0
 18 21  2  0
 19 20  2  0
 20 22  1  0
 21 22  1  0
  2 24  1  0
  3 25  1  0
  4 26  1  0
  7 27  1  0
  9 28  1  0
 12 29  1  0
 14 30  1  0
 16 31  1  0
 20 32  1  0
 21 33  1  0
 23 34  1  1
 23 35  1  0
 23 36  1  0
M  END
>  <Pose ID>  (293)
125

>  <Score>  (293)
-6.030672073364258

>  <smiles>  (293)
Cc1cnc2[nH]cc(Nc3cc(-c4cocn4)cc(=O)[nH]3)cc1-2

$$$$

     RDKit          3D

 39 42  0  0  0  0  0  0  0  0999 V2000
   27.3910    7.9510  -10.2040 C   0  0  0  0  0  0  0  0  0  0  0  0
   28.5020    7.1870  -10.5270 C   0  0  0  0  0  0  0  0  0  0  0  0
   29.4890    7.7120  -11.3520 N   0  0  0  0  0  0  0  0  0  0  0  0
   26.5880    7.2420   -9.3940 N   0  0  0  0  0  0  0  0  0  0  0  0
   29.3640    9.0010  -11.8530 C   0  0  0  0  0  0  0  0  0  0  0  0
   28.2490    9.7660  -11.5290 C   0  0  0  0  0  0  0  0  0  0  0  0
   27.2630    9.2440  -10.7040 C   0  0  0  0  0  0  0  0  0  0  0  0
   30.1730    9.7150  -12.6560 N   0  0  0  0  0  0  0  0  0  0  0  0
   29.6040   10.9500  -12.8680 C   0  0  0  0  0  0  0  0  0  0  0  0
   28.4190   10.8200  -12.1160 C   0  0  0  0  0  0  0  0  0  0  0  0
   25.9980    7.7840   -8.2110 C   0  0  0  0  0  0  0  0  0  0  0  0
   25.3570    6.9160   -7.3370 N   0  0  0  0  0  0  0  0  0  0  0  0
   24.6680    7.4170   -6.2380 C   0  0  0  0  0  0  0  0  0  0  0  0
   24.6210    8.7880   -6.0160 C   0  0  0  0  0  0  0  0  0  0  0  0
   25.2620    9.6580   -6.8910 C   0  0  0  0  0  0  0  0  0  0  0  0
   25.9770    9.1500   -7.9730 C   0  0  0  0  0  0  0  0  0  0  0  0
   23.9550    6.7640   -5.2290 C   0  0  0  0  0  0  0  0  0  0  0  0
   23.6070    7.7450   -4.3280 N   0  0  0  0  0  0  0  0  0  0  0  0
   23.9900    8.9310   -4.6700 C   0  0  0  0  0  0  0  0  0  0  0  0
   23.8340   10.2020   -3.8730 C   0  0  1  0  0  0  0  0  0  0  0  0
   25.1840   11.1480   -6.6690 C   0  0  1  0  0  0  0  0  0  0  0  0
   26.5160   11.5780   -6.0930 C   0  0  1  0  0  0  0  0  0  0  0  0
   28.6020    6.1659  -10.1304 H   0  0  0  0  0  0  0  0  0  0  0  0
   30.3143    7.1445  -11.5922 H   0  0  0  0  0  0  0  0  0  0  0  0
   26.3880    6.2613   -9.6371 H   0  0  0  0  0  0  0  0  0  0  0  0
   26.3823    9.8503  -10.4456 H   0  0  0  0  0  0  0  0  0  0  0  0
   29.9716   11.8014  -13.4596 H   0  0  0  0  0  0  0  0  0  0  0  0
   27.6808   11.6337  -12.0615 H   0  0  0  0  0  0  0  0  0  0  0  0
   25.3919    5.9001   -7.5029 H   0  0  0  0  0  0  0  0  0  0  0  0
   26.5252    9.8326   -8.6390 H   0  0  0  0  0  0  0  0  0  0  0  0
   23.7209    5.6910   -5.1676 H   0  0  0  0  0  0  0  0  0  0  0  0
   23.8628    9.9670   -2.7988 H   0  0  0  0  0  0  0  0  0  0  0  0
   24.6542   10.8924   -4.1195 H   0  0  0  0  0  0  0  0  0  0  0  0
   22.8712   10.6735   -4.1195 H   0  0  0  0  0  0  0  0  0  0  0  0
   25.0007   11.6634   -7.6233 H   0  0  0  0  0  0  0  0  0  0  0  0
   24.3599   11.4013   -5.9859 H   0  0  0  0  0  0  0  0  0  0  0  0
   26.4631   11.5609   -4.9944 H   0  0  0  0  0  0  0  0  0  0  0  0
   27.3024   10.8881   -6.4330 H   0  0  0  0  0  0  0  0  0  0  0  0
   26.7506   12.5975   -6.4330 H   0  0  0  0  0  0  0  0  0  0  0  0
 11  4  1  0
 11 16  2  0
 11 12  1  0
 12 13  1  0
 13 14  1  0
 13 17  2  0
 14 15  2  0
 14 19  1  0
 15 16  1  0
 15 21  1  0
 17 18  1  0
 18 19  2  0
 19 20  1  0
  4  1  1  0
  1  7  1  0
  1  2  2  0
  2  3  1  0
  3  5  1  0
  5  8  2  0
  5  6  1  0
  6 10  1  0
  6  7  2  0
  8  9  1  0
  9 10  2  0
 21 22  1  0
  2 23  1  0
  3 24  1  0
  4 25  1  0
  7 26  1  0
  9 27  1  0
 10 28  1  0
 12 29  1  0
 16 30  1  0
 17 31  1  0
 20 32  1  1
 20 33  1  0
 20 34  1  0
 21 35  1  6
 21 36  1  0
 22 37  1  1
 22 38  1  0
 22 39  1  0
M  END
>  <Pose ID>  (294)
80

>  <Score>  (294)
-6.0271759033203125

>  <smiles>  (294)
CCc1cc(Nc2c[nH]c3nccc-3c2)[nH]c2cnc(C)c1-2

$$$$

     RDKit          3D

 38 41  0  0  0  0  0  0  0  0999 V2000
   27.3040    7.8910  -10.1900 C   0  0  0  0  0  0  0  0  0  0  0  0
   28.4180    7.1440  -10.5390 C   0  0  0  0  0  0  0  0  0  0  0  0
   29.4070    7.7030  -11.3380 N   0  0  0  0  0  0  0  0  0  0  0  0
   26.4990    7.1500   -9.4130 N   0  0  0  0  0  0  0  0  0  0  0  0
   29.2830    9.0130  -11.7860 C   0  0  0  0  0  0  0  0  0  0  0  0
   28.1660    9.7610  -11.4340 C   0  0  0  0  0  0  0  0  0  0  0  0
   27.1760    9.2050  -10.6370 C   0  0  0  0  0  0  0  0  0  0  0  0
   30.0930    9.7620  -12.5520 N   0  0  0  0  0  0  0  0  0  0  0  0
   29.5640   10.9440  -12.7140 C   0  0  0  0  0  0  0  0  0  0  0  0
   28.3620   10.8830  -12.0220 C   0  0  0  0  0  0  0  0  0  0  0  0
   25.9020    7.6390   -8.2120 C   0  0  0  0  0  0  0  0  0  0  0  0
   25.2570    6.7340   -7.3760 N   0  0  0  0  0  0  0  0  0  0  0  0
   24.5630    7.1890   -6.2630 C   0  0  0  0  0  0  0  0  0  0  0  0
   24.5150    8.5500   -5.9830 C   0  0  0  0  0  0  0  0  0  0  0  0
   25.1570    9.4560   -6.8180 C   0  0  0  0  0  0  0  0  0  0  0  0
   25.8760    8.9950   -7.9170 C   0  0  0  0  0  0  0  0  0  0  0  0
   23.9880    6.3770   -5.5150 O   0  0  0  0  0  0  0  0  0  0  0  0
   29.9250   12.1070  -13.3840 C   0  0  0  0  0  0  0  0  0  0  0  0
   29.0800   13.2110  -13.3590 C   0  0  0  0  0  0  0  0  0  0  0  0
   27.8770   13.1510  -12.6660 C   0  0  0  0  0  0  0  0  0  0  0  0
   27.5190   11.9880  -11.9970 N   0  0  0  0  0  0  0  0  0  0  0  0
   25.0740   10.9360   -6.5350 C   0  0  1  0  0  0  0  0  0  0  0  0
   23.7640    9.0430   -4.7710 C   0  0  1  0  0  0  0  0  0  0  0  0
   28.5189    6.1081  -10.1831 H   0  0  0  0  0  0  0  0  0  0  0  0
   30.2333    7.1462  -11.5989 H   0  0  0  0  0  0  0  0  0  0  0  0
   26.3020    6.1798   -9.6974 H   0  0  0  0  0  0  0  0  0  0  0  0
   26.2930    9.7991  -10.3588 H   0  0  0  0  0  0  0  0  0  0  0  0
   25.2942    5.7256   -7.5827 H   0  0  0  0  0  0  0  0  0  0  0  0
   26.4242    9.7061   -8.5524 H   0  0  0  0  0  0  0  0  0  0  0  0
   30.8771   12.1540  -13.9329 H   0  0  0  0  0  0  0  0  0  0  0  0
   29.3640   14.1326  -13.8882 H   0  0  0  0  0  0  0  0  0  0  0  0
   27.2086   14.0244  -12.6474 H   0  0  0  0  0  0  0  0  0  0  0  0
   25.0647   11.1014   -5.4475 H   0  0  0  0  0  0  0  0  0  0  0  0
   25.9451   11.4430   -6.9756 H   0  0  0  0  0  0  0  0  0  0  0  0
   24.1517   11.3424   -6.9756 H   0  0  0  0  0  0  0  0  0  0  0  0
   24.2780    8.7056   -3.8589 H   0  0  0  0  0  0  0  0  0  0  0  0
   23.7261   10.1423   -4.7852 H   0  0  0  0  0  0  0  0  0  0  0  0
   22.7403    8.6406   -4.7852 H   0  0  0  0  0  0  0  0  0  0  0  0
  1  7  1  0
  1  2  2  0
  1  4  1  0
  2  3  1  0
  3  5  1  0
  5  8  2  0
  5  6  1  0
  6 10  1  0
  6  7  2  0
  8  9  1  0
  9 18  1  0
  9 10  2  0
 10 21  1  0
 18 19  2  0
 19 20  1  0
 20 21  2  0
  4 11  1  0
 11 16  2  0
 11 12  1  0
 12 13  1  0
 13 14  1  0
 13 17  2  0
 14 15  2  0
 14 23  1  0
 15 16  1  0
 15 22  1  0
  2 24  1  0
  3 25  1  0
  4 26  1  0
  7 27  1  0
 12 28  1  0
 16 29  1  0
 18 30  1  0
 19 31  1  0
 20 32  1  0
 22 33  1  1
 22 34  1  0
 22 35  1  0
 23 36  1  1
 23 37  1  0
 23 38  1  0
M  END
>  <Pose ID>  (295)
101

>  <Score>  (295)
-6.02280330657959

>  <smiles>  (295)
Cc1cc(Nc2c[nH]c3nc4cccnc4c-3c2)[nH]c(=O)c1C

$$$$

     RDKit          3D

 38 41  0  0  0  0  0  0  0  0999 V2000
   26.6920    8.7490   -9.9910 C   0  0  0  0  0  0  0  0  0  0  0  0
   27.0590    7.4380  -10.2630 C   0  0  0  0  0  0  0  0  0  0  0  0
   28.1930    7.1790  -11.0240 N   0  0  0  0  0  0  0  0  0  0  0  0
   28.9590    8.2280  -11.5120 C   0  0  0  0  0  0  0  0  0  0  0  0
   25.4850    8.8520   -9.1740 O   0  0  0  0  0  0  0  0  0  0  0  0
   28.5910    9.5420  -11.2380 C   0  0  0  0  0  0  0  0  0  0  0  0
   27.4580    9.8000  -10.4760 C   0  0  0  0  0  0  0  0  0  0  0  0
   30.0810    8.2330  -12.2580 N   0  0  0  0  0  0  0  0  0  0  0  0
   30.4570    9.5380  -12.4870 C   0  0  0  0  0  0  0  0  0  0  0  0
   29.4330   10.2220  -11.7980 C   0  0  0  0  0  0  0  0  0  0  0  0
   25.0750   10.0220   -8.5220 C   0  0  0  0  0  0  0  0  0  0  0  0
   25.1190   11.2000   -9.2510 N   0  0  0  0  0  0  0  0  0  0  0  0
   24.7060   12.2290   -8.4240 N   0  0  0  0  0  0  0  0  0  0  0  0
   24.4060   11.7120   -7.2250 C   0  0  0  0  0  0  0  0  0  0  0  0
   24.6070   10.3910   -7.2730 C   0  0  0  0  0  0  0  0  0  0  0  0
   24.6360   13.5400   -8.8230 C   0  0  0  0  0  0  0  0  0  0  0  0
   25.6250   14.0520   -9.6550 C   0  0  0  0  0  0  0  0  0  0  0  0
   25.5950   15.3920  -10.0260 N   0  0  0  0  0  0  0  0  0  0  0  0
   23.6190   14.3690   -8.3600 C   0  0  0  0  0  0  0  0  0  0  0  0
   23.5890   15.7060   -8.7310 C   0  0  0  0  0  0  0  0  0  0  0  0
   24.5750   16.2170   -9.5440 C   0  0  0  0  0  0  0  0  0  0  0  0
   24.3590    9.4390   -6.1290 C   0  0  1  0  0  0  0  0  0  0  0  0
   25.1420    8.1290   -6.4220 C   0  0  1  0  0  0  0  0  0  0  0  0
   26.4531    6.6051   -9.8767 H   0  0  0  0  0  0  0  0  0  0  0  0
   28.4652    6.2064  -11.2261 H   0  0  0  0  0  0  0  0  0  0  0  0
   27.1679   10.8382  -10.2569 H   0  0  0  0  0  0  0  0  0  0  0  0
   31.3148    9.9355  -13.0492 H   0  0  0  0  0  0  0  0  0  0  0  0
   29.3964   11.3210  -11.7677 H   0  0  0  0  0  0  0  0  0  0  0  0
   24.0542   12.2780   -6.3499 H   0  0  0  0  0  0  0  0  0  0  0  0
   26.4307   13.3978  -10.0196 H   0  0  0  0  0  0  0  0  0  0  0  0
   22.8381   13.9644   -7.6994 H   0  0  0  0  0  0  0  0  0  0  0  0
   22.7771   16.3574   -8.3752 H   0  0  0  0  0  0  0  0  0  0  0  0
   24.5601   17.2826   -9.8164 H   0  0  0  0  0  0  0  0  0  0  0  0
   24.7140    9.8845   -5.1880 H   0  0  0  0  0  0  0  0  0  0  0  0
   23.2837    9.2296   -6.0300 H   0  0  0  0  0  0  0  0  0  0  0  0
   25.4271    7.6521   -5.4726 H   0  0  0  0  0  0  0  0  0  0  0  0
   24.5057    7.4430   -7.0004 H   0  0  0  0  0  0  0  0  0  0  0  0
   26.0475    8.3646   -7.0004 H   0  0  0  0  0  0  0  0  0  0  0  0
 11 12  2  0
 11  5  1  0
 11 15  1  0
 12 13  1  0
 13 16  1  0
 13 14  1  0
 14 15  2  0
 15 22  1  0
 16 17  2  0
 16 19  1  0
 17 18  1  0
 18 21  2  0
 19 20  2  0
 20 21  1  0
 22 23  1  0
  5  1  1  0
  1  7  1  0
  1  2  2  0
  2  3  1  0
  3  4  1  0
  4  8  2  0
  4  6  1  0
  6 10  1  0
  6  7  2  0
  8  9  1  0
  9 10  2  0
  2 24  1  0
  3 25  1  0
  7 26  1  0
  9 27  1  0
 10 28  1  0
 14 29  1  0
 17 30  1  0
 19 31  1  0
 20 32  1  0
 21 33  1  0
 22 34  1  1
 22 35  1  0
 23 36  1  1
 23 37  1  0
 23 38  1  0
M  END
>  <Pose ID>  (296)
266

>  <Score>  (296)
-6.02269983291626

>  <smiles>  (296)
CCc1cn(-c2cccnc2)nc1Oc1c[nH]c2nccc-2c1

$$$$

     RDKit          3D

 36 39  0  0  0  0  0  0  0  0999 V2000
   26.9650    8.2940   -9.9470 C   0  0  0  0  0  0  0  0  0  0  0  0
   27.6240    7.2660  -10.6100 C   0  0  0  0  0  0  0  0  0  0  0  0
   28.6560    7.5560  -11.4930 N   0  0  0  0  0  0  0  0  0  0  0  0
   29.0320    8.8760  -11.7120 C   0  0  0  0  0  0  0  0  0  0  0  0
   25.9120    7.8220   -9.0510 O   0  0  0  0  0  0  0  0  0  0  0  0
   28.3700    9.9070  -11.0500 C   0  0  0  0  0  0  0  0  0  0  0  0
   27.3390    9.6130  -10.1670 C   0  0  0  0  0  0  0  0  0  0  0  0
   29.9850    9.4020  -12.5070 N   0  0  0  0  0  0  0  0  0  0  0  0
   29.9580   10.7710  -12.3800 C   0  0  0  0  0  0  0  0  0  0  0  0
   28.9060   10.9250  -11.4530 C   0  0  0  0  0  0  0  0  0  0  0  0
   25.3090    8.6120   -8.0650 C   0  0  0  0  0  0  0  0  0  0  0  0
   24.9230    9.8920   -8.4300 N   0  0  0  0  0  0  0  0  0  0  0  0
   24.3850   10.5050   -7.3160 N   0  0  0  0  0  0  0  0  0  0  0  0
   24.4150    9.6390   -6.2950 C   0  0  0  0  0  0  0  0  0  0  0  0
   24.9520    8.4960   -6.7310 C   0  0  0  0  0  0  0  0  0  0  0  0
   23.9400   11.6760   -7.2840 C   0  0  0  0  0  0  0  0  0  0  0  0
   23.3450   12.3000   -6.1940 N   0  0  0  0  0  0  0  0  0  0  0  0
   24.0800   12.3590   -8.4860 C   0  0  0  0  0  0  0  0  0  0  0  0
   23.6250   13.6670   -8.5990 C   0  0  0  0  0  0  0  0  0  0  0  0
   23.0330   14.2930   -7.5090 C   0  0  0  0  0  0  0  0  0  0  0  0
   22.9090   13.6770   -6.3680 C   0  0  0  0  0  0  0  0  0  0  0  0
   22.4050   14.2820   -5.4050 O   0  0  0  0  0  0  0  0  0  0  0  0
   23.7750   14.4080   -9.9050 C   0  0  1  0  0  0  0  0  0  0  0  0
   27.3279    6.2211  -10.4353 H   0  0  0  0  0  0  0  0  0  0  0  0
   29.1425    6.7932  -11.9853 H   0  0  0  0  0  0  0  0  0  0  0  0
   26.8178   10.4265   -9.6410 H   0  0  0  0  0  0  0  0  0  0  0  0
   30.5833   11.5342  -12.8664 H   0  0  0  0  0  0  0  0  0  0  0  0
   28.5838   11.9190  -11.1092 H   0  0  0  0  0  0  0  0  0  0  0  0
   24.0587    9.8351   -5.2729 H   0  0  0  0  0  0  0  0  0  0  0  0
   25.0908    7.5926   -6.1190 H   0  0  0  0  0  0  0  0  0  0  0  0
   23.2178   11.8071   -5.2986 H   0  0  0  0  0  0  0  0  0  0  0  0
   24.5511   11.8642   -9.3481 H   0  0  0  0  0  0  0  0  0  0  0  0
   22.6636   15.3241   -7.6111 H   0  0  0  0  0  0  0  0  0  0  0  0
   23.9895   15.4678   -9.7027 H   0  0  0  0  0  0  0  0  0  0  0  0
   24.6027   13.9700  -10.4821 H   0  0  0  0  0  0  0  0  0  0  0  0
   22.8421   14.3264  -10.4821 H   0  0  0  0  0  0  0  0  0  0  0  0
 11  5  1  0
 11 12  2  0
 11 15  1  0
 12 13  1  0
 13 16  1  0
 13 14  1  0
 14 15  2  0
 16 18  2  0
 16 17  1  0
 17 21  1  0
 18 19  1  0
 19 23  1  0
 19 20  2  0
 20 21  1  0
 21 22  2  0
  5  1  1  0
  1  2  2  0
  1  7  1  0
  2  3  1  0
  3  4  1  0
  4  8  2  0
  4  6  1  0
  6 10  1  0
  6  7  2  0
  8  9  1  0
  9 10  2  0
  2 24  1  0
  3 25  1  0
  7 26  1  0
  9 27  1  0
 10 28  1  0
 14 29  1  0
 15 30  1  0
 17 31  1  0
 18 32  1  0
 20 33  1  0
 23 34  1  1
 23 35  1  0
 23 36  1  0
M  END
>  <Pose ID>  (297)
240

>  <Score>  (297)
-6.019684314727783

>  <smiles>  (297)
Cc1cc(-n2ccc(Oc3c[nH]c4nccc-4c3)n2)[nH]c(=O)c1

$$$$

     RDKit          3D

 39 42  0  0  0  0  0  0  0  0999 V2000
   27.3620    7.9370  -10.1930 C   0  0  0  0  0  0  0  0  0  0  0  0
   28.4740    7.1780  -10.5210 C   0  0  0  0  0  0  0  0  0  0  0  0
   29.4610    7.7100  -11.3430 N   0  0  0  0  0  0  0  0  0  0  0  0
   26.5610    7.2220   -9.3880 N   0  0  0  0  0  0  0  0  0  0  0  0
   29.3340    9.0010  -11.8350 C   0  0  0  0  0  0  0  0  0  0  0  0
   28.2180    9.7620  -11.5070 C   0  0  0  0  0  0  0  0  0  0  0  0
   27.2330    9.2340  -10.6860 C   0  0  0  0  0  0  0  0  0  0  0  0
   30.1420    9.7220  -12.6340 N   0  0  0  0  0  0  0  0  0  0  0  0
   29.5710   10.9580  -12.8390 C   0  0  0  0  0  0  0  0  0  0  0  0
   28.3850   10.8210  -12.0870 C   0  0  0  0  0  0  0  0  0  0  0  0
   25.9690    7.7560   -8.2020 C   0  0  0  0  0  0  0  0  0  0  0  0
   25.3300    6.8800   -7.3330 N   0  0  0  0  0  0  0  0  0  0  0  0
   24.6400    7.3750   -6.2310 C   0  0  0  0  0  0  0  0  0  0  0  0
   24.5900    8.7440   -6.0000 C   0  0  0  0  0  0  0  0  0  0  0  0
   25.2300    9.6200   -6.8700 C   0  0  0  0  0  0  0  0  0  0  0  0
   25.9450    9.1210   -7.9550 C   0  0  0  0  0  0  0  0  0  0  0  0
   23.9270    6.7140   -5.2260 C   0  0  0  0  0  0  0  0  0  0  0  0
   23.5770    7.6890   -4.3190 N   0  0  0  0  0  0  0  0  0  0  0  0
   23.9590    8.8780   -4.6530 C   0  0  0  0  0  0  0  0  0  0  0  0
   23.8010   10.1430   -3.8480 C   0  0  1  0  0  0  0  0  0  0  0  0
   22.6680   10.9440   -4.3690 C   0  0  1  0  0  0  0  0  0  0  0  0
   23.5240    9.7930   -2.3710 C   0  0  1  0  0  0  0  0  0  0  0  0
   28.5758    6.1545  -10.1310 H   0  0  0  0  0  0  0  0  0  0  0  0
   30.2871    7.1453  -11.5869 H   0  0  0  0  0  0  0  0  0  0  0  0
   26.3636    6.2422   -9.6367 H   0  0  0  0  0  0  0  0  0  0  0  0
   26.3515    9.8378  -10.4244 H   0  0  0  0  0  0  0  0  0  0  0  0
   29.9372   11.8136  -13.4254 H   0  0  0  0  0  0  0  0  0  0  0  0
   27.6450   11.6327  -12.0269 H   0  0  0  0  0  0  0  0  0  0  0  0
   25.3672    5.8651   -7.5046 H   0  0  0  0  0  0  0  0  0  0  0  0
   25.1713   10.7054   -6.7010 H   0  0  0  0  0  0  0  0  0  0  0  0
   26.4912    9.8092   -8.6169 H   0  0  0  0  0  0  0  0  0  0  0  0
   23.6945    5.6402   -5.1715 H   0  0  0  0  0  0  0  0  0  0  0  0
   24.7309   10.7252   -3.9276 H   0  0  0  0  0  0  0  0  0  0  0  0
   22.0900   11.3526   -3.5270 H   0  0  0  0  0  0  0  0  0  0  0  0
   23.0550   11.7703   -4.9833 H   0  0  0  0  0  0  0  0  0  0  0  0
   22.0181   10.3036   -4.9833 H   0  0  0  0  0  0  0  0  0  0  0  0
   24.0743   10.4883   -1.7200 H   0  0  0  0  0  0  0  0  0  0  0  0
   22.4459    9.8780   -2.1700 H   0  0  0  0  0  0  0  0  0  0  0  0
   23.8544    8.7632   -2.1700 H   0  0  0  0  0  0  0  0  0  0  0  0
 11  4  1  0
 11 16  2  0
 11 12  1  0
 12 13  1  0
 13 14  1  0
 13 17  2  0
 14 15  2  0
 14 19  1  0
 15 16  1  0
 17 18  1  0
 18 19  2  0
 19 20  1  0
 20 21  1  0
 20 22  1  0
  4  1  1  0
  1  7  1  0
  1  2  2  0
  2  3  1  0
  3  5  1  0
  5  8  2  0
  5  6  1  0
  6 10  1  0
  6  7  2  0
  8  9  1  0
  9 10  2  0
  2 23  1  0
  3 24  1  0
  4 25  1  0
  7 26  1  0
  9 27  1  0
 10 28  1  0
 12 29  1  0
 15 30  1  0
 16 31  1  0
 17 32  1  0
 20 33  1  1
 21 34  1  1
 21 35  1  0
 21 36  1  0
 22 37  1  1
 22 38  1  0
 22 39  1  0
M  END
>  <Pose ID>  (298)
77

>  <Score>  (298)
-6.018956661224365

>  <smiles>  (298)
CC(C)c1ncc2[nH]c(Nc3c[nH]c4nccc-4c3)ccc1-2

$$$$

     RDKit          3D

 39 41  0  0  0  0  0  0  0  0999 V2000
   28.1290    9.8930  -11.3730 C   0  0  0  0  0  0  0  0  0  0  0  0
   28.8780    8.7240  -11.2870 C   0  0  0  0  0  0  0  0  0  0  0  0
   28.4760    7.6430  -10.5170 N   0  0  0  0  0  0  0  0  0  0  0  0
   27.2630    7.7080   -9.8420 C   0  0  0  0  0  0  0  0  0  0  0  0
   26.4730    8.8470   -9.9410 C   0  0  0  0  0  0  0  0  0  0  0  0
   26.8860    9.9060  -10.7240 C   0  0  0  0  0  0  0  0  0  0  0  0
   26.8840    6.7480   -9.1550 O   0  0  0  0  0  0  0  0  0  0  0  0
   30.0970    8.6320  -11.9520 N   0  0  0  0  0  0  0  0  0  0  0  0
   30.5600    9.7030  -12.7050 C   0  0  0  0  0  0  0  0  0  0  0  0
   29.8100   10.8700  -12.7910 C   0  0  0  0  0  0  0  0  0  0  0  0
   28.5900   10.9620  -12.1130 C   0  0  0  0  0  0  0  0  0  0  0  0
   25.2640    9.1570   -9.3680 N   0  0  0  0  0  0  0  0  0  0  0  0
   25.0810    9.1980   -7.8860 C   0  0  0  0  0  0  0  0  0  0  0  0
   24.4200    8.1350   -7.2850 C   0  0  0  0  0  0  0  0  0  0  0  0
   24.2190    8.1300   -5.9090 C   0  0  0  0  0  0  0  0  0  0  0  0
   24.6810    9.1880   -5.1370 C   0  0  0  0  0  0  0  0  0  0  0  0
   25.3420   10.2510   -5.7370 C   0  0  0  0  0  0  0  0  0  0  0  0
   25.5430   10.2570   -7.1130 N   0  0  0  0  0  0  0  0  0  0  0  0
   27.8530   12.1110  -12.1830 N   0  0  0  0  0  0  0  0  0  0  0  0
   27.3760   12.6000  -13.4840 C   0  0  1  0  0  0  0  0  0  0  0  0
   27.8550   13.0680  -11.0310 C   0  0  1  0  0  0  0  0  0  0  0  0
   24.4650    9.1830   -3.6430 C   0  0  1  0  0  0  0  0  0  0  0  0
   29.0684    6.8034  -10.4463 H   0  0  0  0  0  0  0  0  0  0  0  0
   26.2263   10.7784  -10.8414 H   0  0  0  0  0  0  0  0  0  0  0  0
   31.5215    9.6277  -13.2340 H   0  0  0  0  0  0  0  0  0  0  0  0
   30.1743   11.7178  -13.3898 H   0  0  0  0  0  0  0  0  0  0  0  0
   24.4607    9.3672   -9.9774 H   0  0  0  0  0  0  0  0  0  0  0  0
   24.0554    7.2970   -7.8972 H   0  0  0  0  0  0  0  0  0  0  0  0
   23.6945    7.2887   -5.4324 H   0  0  0  0  0  0  0  0  0  0  0  0
   25.7067   11.0885   -5.1241 H   0  0  0  0  0  0  0  0  0  0  0  0
   26.6158   13.3793  -13.3265 H   0  0  0  0  0  0  0  0  0  0  0  0
   28.2205   13.0205  -14.0497 H   0  0  0  0  0  0  0  0  0  0  0  0
   26.9346   11.7662  -14.0497 H   0  0  0  0  0  0  0  0  0  0  0  0
   27.8538   12.5046  -10.0863 H   0  0  0  0  0  0  0  0  0  0  0  0
   28.7545   13.6993  -11.0803 H   0  0  0  0  0  0  0  0  0  0  0  0
   26.9582   13.7030  -11.0803 H   0  0  0  0  0  0  0  0  0  0  0  0
   25.4387    9.2055   -3.1317 H   0  0  0  0  0  0  0  0  0  0  0  0
   23.8787   10.0678   -3.3543 H   0  0  0  0  0  0  0  0  0  0  0  0
   23.9202    8.2720   -3.3543 H   0  0  0  0  0  0  0  0  0  0  0  0
  1 11  1  0
  1  2  2  0
  1  6  1  0
  2  8  1  0
  2  3  1  0
  3  4  1  0
  4  5  1  0
  4  7  2  0
  5  6  2  0
  5 12  1  0
  8  9  2  0
  9 10  1  0
 10 11  2  0
 11 19  1  0
 19 20  1  0
 19 21  1  0
 12 13  1  0
 13 14  2  0
 13 18  1  0
 14 15  1  0
 15 16  2  0
 16 17  1  0
 16 22  1  0
 17 18  2  0
  3 23  1  0
  6 24  1  0
  9 25  1  0
 10 26  1  0
 12 27  1  0
 14 28  1  0
 15 29  1  0
 17 30  1  0
 20 31  1  1
 20 32  1  0
 20 33  1  0
 21 34  1  1
 21 35  1  0
 21 36  1  0
 22 37  1  1
 22 38  1  0
 22 39  1  0
M  END
>  <Pose ID>  (299)
162

>  <Score>  (299)
-6.011251449584961

>  <smiles>  (299)
Cc1ccc(Nc2cc3c(N(C)C)ccnc3[nH]c2=O)nc1

$$$$

     RDKit          3D

 36 39  0  0  0  0  0  0  0  0999 V2000
   27.3710    7.9920  -10.1590 C   0  0  0  0  0  0  0  0  0  0  0  0
   28.4350    7.1930  -10.5450 C   0  0  0  0  0  0  0  0  0  0  0  0
   29.4330    7.7100  -11.3610 N   0  0  0  0  0  0  0  0  0  0  0  0
   26.5470    7.2820   -9.3720 N   0  0  0  0  0  0  0  0  0  0  0  0
   29.3660    9.0290  -11.7900 C   0  0  0  0  0  0  0  0  0  0  0  0
   28.3000    9.8310  -11.4020 C   0  0  0  0  0  0  0  0  0  0  0  0
   27.3020    9.3160  -10.5870 C   0  0  0  0  0  0  0  0  0  0  0  0
   30.1970    9.7440  -12.5700 N   0  0  0  0  0  0  0  0  0  0  0  0
   29.6900   11.0160  -12.7040 C   0  0  0  0  0  0  0  0  0  0  0  0
   28.5120   10.9060  -11.9360 C   0  0  0  0  0  0  0  0  0  0  0  0
   26.0070    7.7900   -8.1500 C   0  0  0  0  0  0  0  0  0  0  0  0
   25.3370    6.9080   -7.3100 N   0  0  0  0  0  0  0  0  0  0  0  0
   24.6950    7.3840   -6.1730 C   0  0  0  0  0  0  0  0  0  0  0  0
   24.7230    8.7410   -5.8770 C   0  0  0  0  0  0  0  0  0  0  0  0
   25.3930    9.6240   -6.7170 C   0  0  0  0  0  0  0  0  0  0  0  0
   26.0610    9.1390   -7.8390 C   0  0  0  0  0  0  0  0  0  0  0  0
   23.9660    6.7140   -5.1850 C   0  0  0  0  0  0  0  0  0  0  0  0
   23.6860    7.6620   -4.2260 N   0  0  0  0  0  0  0  0  0  0  0  0
   24.1250    8.8430   -4.5120 C   0  0  0  0  0  0  0  0  0  0  0  0
   24.0490   10.0750   -3.6450 C   0  0  1  0  0  0  0  0  0  0  0  0
   30.2410   12.1980  -13.4620 C   0  0  1  0  0  0  0  0  0  0  0  0
   28.4894    6.1483  -10.2049 H   0  0  0  0  0  0  0  0  0  0  0  0
   30.2231    7.1148  -11.6480 H   0  0  0  0  0  0  0  0  0  0  0  0
   26.2922    6.3271   -9.6622 H   0  0  0  0  0  0  0  0  0  0  0  0
   26.4585    9.9516  -10.2796 H   0  0  0  0  0  0  0  0  0  0  0  0
   27.8169   11.7512  -11.8242 H   0  0  0  0  0  0  0  0  0  0  0  0
   25.3164    5.9020   -7.5302 H   0  0  0  0  0  0  0  0  0  0  0  0
   25.3954   10.7016   -6.4961 H   0  0  0  0  0  0  0  0  0  0  0  0
   26.6320    9.8279   -8.4788 H   0  0  0  0  0  0  0  0  0  0  0  0
   23.6770    5.6527   -5.1759 H   0  0  0  0  0  0  0  0  0  0  0  0
   24.0672    9.7795   -2.5856 H   0  0  0  0  0  0  0  0  0  0  0  0
   24.9086   10.7273   -3.8586 H   0  0  0  0  0  0  0  0  0  0  0  0
   23.1157   10.6167   -3.8586 H   0  0  0  0  0  0  0  0  0  0  0  0
   30.5951   12.9577  -12.7496 H   0  0  0  0  0  0  0  0  0  0  0  0
   31.0789   11.8697  -14.0946 H   0  0  0  0  0  0  0  0  0  0  0  0
   29.4508   12.6286  -14.0946 H   0  0  0  0  0  0  0  0  0  0  0  0
  4  1  1  0
  4 11  1  0
  1  7  1  0
  1  2  2  0
  2  3  1  0
  3  5  1  0
  5  8  2  0
  5  6  1  0
  6 10  1  0
  6  7  2  0
  8  9  1  0
  9 21  1  0
  9 10  2  0
 11 16  2  0
 11 12  1  0
 12 13  1  0
 13 14  1  0
 13 17  2  0
 14 15  2  0
 14 19  1  0
 15 16  1  0
 17 18  1  0
 18 19  2  0
 19 20  1  0
  2 22  1  0
  3 23  1  0
  4 24  1  0
  7 25  1  0
 10 26  1  0
 12 27  1  0
 15 28  1  0
 16 29  1  0
 17 30  1  0
 20 31  1  1
 20 32  1  0
 20 33  1  0
 21 34  1  1
 21 35  1  0
 21 36  1  0
M  END
>  <Pose ID>  (300)
72

>  <Score>  (300)
-6.008701801300049

>  <smiles>  (300)
Cc1cc2cc(Nc3ccc4c(C)ncc-4[nH]3)c[nH]c-2n1

$$$$

     RDKit          3D

 36 38  0  0  0  0  0  0  0  0999 V2000
   27.9770    7.9240  -10.2920 C   0  0  0  0  0  0  0  0  0  0  0  0
   28.9290    7.1620  -10.9580 C   0  0  0  0  0  0  0  0  0  0  0  0
   29.8000    7.7680  -11.8540 N   0  0  0  0  0  0  0  0  0  0  0  0
   29.7180    9.1350  -12.0870 C   0  0  0  0  0  0  0  0  0  0  0  0
   27.1470    7.1410   -9.3790 O   0  0  0  0  0  0  0  0  0  0  0  0
   28.7640    9.8970  -11.4210 C   0  0  0  0  0  0  0  0  0  0  0  0
   27.8940    9.2910  -10.5220 C   0  0  0  0  0  0  0  0  0  0  0  0
   30.4370    9.9390  -12.8970 N   0  0  0  0  0  0  0  0  0  0  0  0
   29.9640   11.2260  -12.7760 C   0  0  0  0  0  0  0  0  0  0  0  0
   28.9300   11.0320  -11.8350 C   0  0  0  0  0  0  0  0  0  0  0  0
   26.3290    7.6980   -8.3890 C   0  0  0  0  0  0  0  0  0  0  0  0
   25.5410    8.7780   -8.7560 N   0  0  0  0  0  0  0  0  0  0  0  0
   24.8400    9.1910   -7.6370 N   0  0  0  0  0  0  0  0  0  0  0  0
   25.1690    8.3900   -6.6120 C   0  0  0  0  0  0  0  0  0  0  0  0
   26.0440    7.4830   -7.0520 C   0  0  0  0  0  0  0  0  0  0  0  0
   23.9310   10.3050   -7.7060 C   0  0  1  0  0  0  0  0  0  0  0  0
   23.9740   11.2250   -6.5460 C   0  0  0  0  0  0  0  0  0  0  0  0
   24.2680   10.7320   -5.4280 O   0  0  0  0  0  0  0  0  0  0  0  0
   23.7370   12.5730   -6.6740 N   0  0  0  0  0  0  0  0  0  0  0  0
   23.4650   13.3870   -5.4800 C   0  0  1  0  0  0  0  0  0  0  0  0
   23.3940   13.2170   -7.9710 C   0  0  1  0  0  0  0  0  0  0  0  0
   28.9928    6.0791  -10.7756 H   0  0  0  0  0  0  0  0  0  0  0  0
   30.5072    7.2035  -12.3461 H   0  0  0  0  0  0  0  0  0  0  0  0
   27.1407    9.8936   -9.9934 H   0  0  0  0  0  0  0  0  0  0  0  0
   30.2985   12.1482  -13.2737 H   0  0  0  0  0  0  0  0  0  0  0  0
   28.3022   11.8670  -11.4906 H   0  0  0  0  0  0  0  0  0  0  0  0
   24.7835    8.4675   -5.5847 H   0  0  0  0  0  0  0  0  0  0  0  0
   26.4770    6.6789   -6.4389 H   0  0  0  0  0  0  0  0  0  0  0  0
   24.1707   10.8847   -8.6096 H   0  0  0  0  0  0  0  0  0  0  0  0
   22.9191    9.8739   -7.7172 H   0  0  0  0  0  0  0  0  0  0  0  0
   23.6641   12.7913   -4.5770 H   0  0  0  0  0  0  0  0  0  0  0  0
   24.1156   14.2740   -5.4849 H   0  0  0  0  0  0  0  0  0  0  0  0
   22.4119   13.7047   -5.4849 H   0  0  0  0  0  0  0  0  0  0  0  0
   22.8846   14.1735   -7.7821 H   0  0  0  0  0  0  0  0  0  0  0  0
   24.3147   13.3990   -8.5448 H   0  0  0  0  0  0  0  0  0  0  0  0
   22.7292   12.5546   -8.5448 H   0  0  0  0  0  0  0  0  0  0  0  0
  5  1  1  0
  5 11  1  0
  1  2  2  0
  1  7  1  0
  2  3  1  0
  3  4  1  0
  4  8  2  0
  4  6  1  0
  6 10  1  0
  6  7  2  0
  8  9  1  0
  9 10  2  0
 11 12  2  0
 11 15  1  0
 12 13  1  0
 13 16  1  0
 13 14  1  0
 14 15  2  0
 16 17  1  0
 17 19  1  0
 17 18  2  0
 19 21  1  0
 19 20  1  0
  2 22  1  0
  3 23  1  0
  7 24  1  0
  9 25  1  0
 10 26  1  0
 14 27  1  0
 15 28  1  0
 16 29  1  6
 16 30  1  0
 20 31  1  1
 20 32  1  0
 20 33  1  0
 21 34  1  1
 21 35  1  0
 21 36  1  0
M  END
>  <Pose ID>  (301)
547

>  <Score>  (301)
-5.992983341217041

>  <smiles>  (301)
CN(C)C(=O)Cn1ccc(Oc2c[nH]c3nccc-3c2)n1

$$$$

     RDKit          3D

 44 47  0  0  0  0  0  0  0  0999 V2000
   27.3060    8.4290  -10.0930 C   0  0  0  0  0  0  0  0  0  0  0  0
   28.1420    7.4090  -10.5290 C   0  0  0  0  0  0  0  0  0  0  0  0
   29.1750    7.6880  -11.4140 N   0  0  0  0  0  0  0  0  0  0  0  0
   29.3720    8.9880  -11.8660 C   0  0  0  0  0  0  0  0  0  0  0  0
   26.2760    7.9750   -9.1600 O   0  0  0  0  0  0  0  0  0  0  0  0
   28.5330   10.0090  -11.4310 C   0  0  0  0  0  0  0  0  0  0  0  0
   27.5020    9.7280  -10.5450 C   0  0  0  0  0  0  0  0  0  0  0  0
   30.2870    9.5010  -12.7120 N   0  0  0  0  0  0  0  0  0  0  0  0
   30.0600   10.8520  -12.8450 C   0  0  0  0  0  0  0  0  0  0  0  0
   28.9390   11.0070  -11.9980 C   0  0  0  0  0  0  0  0  0  0  0  0
   25.5100    8.8280   -8.3610 C   0  0  0  0  0  0  0  0  0  0  0  0
   24.9680    9.9490   -8.9740 N   0  0  0  0  0  0  0  0  0  0  0  0
   24.2780   10.6660   -8.0120 N   0  0  0  0  0  0  0  0  0  0  0  0
   24.3730   10.0110   -6.8470 C   0  0  0  0  0  0  0  0  0  0  0  0
   25.0910    8.9020   -7.0440 C   0  0  0  0  0  0  0  0  0  0  0  0
   23.6060   11.8940   -8.3530 C   0  0  1  0  0  0  0  0  0  0  0  0
   23.9090   10.2370   -5.5810 N   0  0  0  0  0  0  0  0  0  0  0  0
   24.4900   10.1550   -4.2320 C   0  0  1  0  0  0  0  0  0  0  0  0
   23.8120    9.3810   -3.2160 C   0  0  1  0  0  0  0  0  0  0  0  0
   22.3430    9.9230   -3.0150 C   0  0  1  0  0  0  0  0  0  0  0  0
   21.5890    9.6700   -4.3080 C   0  0  1  0  0  0  0  0  0  0  0  0
   22.4820   10.6570   -5.4890 C   0  0  1  0  0  0  0  0  0  0  0  0
   21.6950    9.2120   -1.8280 C   0  0  1  0  0  0  0  0  0  0  0  0
   27.9857    6.3800  -10.1731 H   0  0  0  0  0  0  0  0  0  0  0  0
   29.7956    6.9315  -11.7358 H   0  0  0  0  0  0  0  0  0  0  0  0
   26.8391   10.5352  -10.2002 H   0  0  0  0  0  0  0  0  0  0  0  0
   30.5997   11.6012  -13.4429 H   0  0  0  0  0  0  0  0  0  0  0  0
   28.4554   11.9850  -11.8575 H   0  0  0  0  0  0  0  0  0  0  0  0
   25.3171    8.1540   -6.2698 H   0  0  0  0  0  0  0  0  0  0  0  0
   23.3172   12.4218   -7.4322 H   0  0  0  0  0  0  0  0  0  0  0  0
   24.2818   12.5300   -8.9436 H   0  0  0  0  0  0  0  0  0  0  0  0
   22.7060   11.6677   -8.9436 H   0  0  0  0  0  0  0  0  0  0  0  0
   25.4977    9.7278   -4.3419 H   0  0  0  0  0  0  0  0  0  0  0  0
   24.4278   11.1876   -3.8580 H   0  0  0  0  0  0  0  0  0  0  0  0
   23.7719    8.3268   -3.5274 H   0  0  0  0  0  0  0  0  0  0  0  0
   24.3623    9.4692   -2.2677 H   0  0  0  0  0  0  0  0  0  0  0  0
   22.3323   11.0000   -2.7917 H   0  0  0  0  0  0  0  0  0  0  0  0
   21.6174    8.6047   -4.5807 H   0  0  0  0  0  0  0  0  0  0  0  0
   20.5214    9.9276   -4.2457 H   0  0  0  0  0  0  0  0  0  0  0  0
   22.4387   11.7117   -5.1795 H   0  0  0  0  0  0  0  0  0  0  0  0
   22.0168   10.5203   -6.4763 H   0  0  0  0  0  0  0  0  0  0  0  0
   22.0822    9.6369   -0.8902 H   0  0  0  0  0  0  0  0  0  0  0  0
   20.6043    9.3486   -1.8696 H   0  0  0  0  0  0  0  0  0  0  0  0
   21.9319    8.1386   -1.8696 H   0  0  0  0  0  0  0  0  0  0  0  0
 11  5  1  0
 11 12  2  0
 11 15  1  0
 12 13  1  0
 13 16  1  0
 13 14  1  0
 14 15  2  0
 14 17  1  0
 17 22  1  0
 17 18  1  0
 18 19  1  0
 19 20  1  0
 20 21  1  0
 20 23  1  0
 21 22  1  0
  5  1  1  0
  1  7  1  0
  1  2  2  0
  2  3  1  0
  3  4  1  0
  4  8  2  0
  4  6  1  0
  6 10  1  0
  6  7  2  0
  8  9  1  0
  9 10  2  0
  2 24  1  0
  3 25  1  0
  7 26  1  0
  9 27  1  0
 10 28  1  0
 15 29  1  0
 16 30  1  1
 16 31  1  0
 16 32  1  0
 18 33  1  6
 18 34  1  0
 19 35  1  6
 19 36  1  0
 20 37  1  1
 21 38  1  6
 21 39  1  0
 22 40  1  1
 22 41  1  0
 23 42  1  1
 23 43  1  0
 23 44  1  0
M  END
>  <Pose ID>  (302)
551

>  <Score>  (302)
-5.983133792877197

>  <smiles>  (302)
CC1CCN(c2cc(Oc3c[nH]c4nccc-4c3)nn2C)CC1

$$$$

     RDKit          3D

 24 25  0  0  0  0  0  0  0  0999 V2000
   26.4140    7.5560   -9.0490 C   0  0  0  0  0  0  0  0  0  0  0  0
   26.0040    8.8590   -9.2920 N   0  0  0  0  0  0  0  0  0  0  0  0
   27.5450    7.0520   -9.6790 N   0  0  0  0  0  0  0  0  0  0  0  0
   26.7230    9.6620  -10.1700 C   0  0  0  0  0  0  0  0  0  0  0  0
   26.2610   10.9580  -10.3270 O   0  0  0  0  0  0  0  0  0  0  0  0
   28.2660    7.8540  -10.5580 C   0  0  0  0  0  0  0  0  0  0  0  0
   27.8550    9.1570  -10.8020 C   0  0  0  0  0  0  0  0  0  0  0  0
   26.9410   12.0700  -10.8770 C   0  0  0  0  0  0  0  0  0  0  0  0
   27.6390   11.8060  -12.0510 N   0  0  0  0  0  0  0  0  0  0  0  0
   28.2630   12.9990  -12.4230 N   0  0  0  0  0  0  0  0  0  0  0  0
   27.9530   13.9440  -11.5350 C   0  0  0  0  0  0  0  0  0  0  0  0
   27.1460   13.4010  -10.6120 C   0  0  0  0  0  0  0  0  0  0  0  0
   29.0750   13.0510  -13.6160 C   0  0  1  0  0  0  0  0  0  0  0  0
   25.6310    6.6850   -8.0970 C   0  0  1  0  0  0  0  0  0  0  0  0
   29.1607    7.4559  -11.0590 H   0  0  0  0  0  0  0  0  0  0  0  0
   28.4253    9.7916  -11.4963 H   0  0  0  0  0  0  0  0  0  0  0  0
   28.2992   14.9879  -11.5559 H   0  0  0  0  0  0  0  0  0  0  0  0
   26.7096   13.9458   -9.7618 H   0  0  0  0  0  0  0  0  0  0  0  0
   30.1362   13.1190  -13.3346 H   0  0  0  0  0  0  0  0  0  0  0  0
   28.9111   12.1405  -14.2111 H   0  0  0  0  0  0  0  0  0  0  0  0
   28.7963   13.9331  -14.2111 H   0  0  0  0  0  0  0  0  0  0  0  0
   25.8781    6.9599   -7.0610 H   0  0  0  0  0  0  0  0  0  0  0  0
   24.5542    6.8306   -8.2681 H   0  0  0  0  0  0  0  0  0  0  0  0
   25.8900    5.6297   -8.2681 H   0  0  0  0  0  0  0  0  0  0  0  0
  1  3  2  0
  1  2  1  0
  1 14  1  0
  2  4  2  0
  3  6  1  0
  4  7  1  0
  4  5  1  0
  6  7  2  0
  5  8  1  0
  8  9  2  0
  8 12  1  0
  9 10  1  0
 10 13  1  0
 10 11  1  0
 11 12  2  0
  6 15  1  0
  7 16  1  0
 11 17  1  0
 12 18  1  0
 13 19  1  1
 13 20  1  0
 13 21  1  0
 14 22  1  1
 14 23  1  0
 14 24  1  0
M  END
>  <Pose ID>  (303)
2

>  <Score>  (303)
-5.9829840660095215

>  <smiles>  (303)
Cc1nccc(Oc2ccn(C)n2)n1

$$$$

     RDKit          3D

 36 39  0  0  0  0  0  0  0  0999 V2000
   27.3290    8.0210  -10.2490 C   0  0  0  0  0  0  0  0  0  0  0  0
   28.3240    7.2010  -10.7560 C   0  0  0  0  0  0  0  0  0  0  0  0
   29.3100    7.7310  -11.5780 N   0  0  0  0  0  0  0  0  0  0  0  0
   26.5030    7.2910   -9.4810 N   0  0  0  0  0  0  0  0  0  0  0  0
   29.3010    9.0860  -11.8900 C   0  0  0  0  0  0  0  0  0  0  0  0
   28.3020    9.9080  -11.3810 C   0  0  0  0  0  0  0  0  0  0  0  0
   27.3160    9.3780  -10.5600 C   0  0  0  0  0  0  0  0  0  0  0  0
   30.1330    9.8190  -12.6480 N   0  0  0  0  0  0  0  0  0  0  0  0
   29.6940   11.1250  -12.6490 C   0  0  0  0  0  0  0  0  0  0  0  0
   28.5520   11.0130  -11.8290 C   0  0  0  0  0  0  0  0  0  0  0  0
   26.0520    7.7160   -8.1950 C   0  0  0  0  0  0  0  0  0  0  0  0
   25.3730    6.8030   -7.3970 N   0  0  0  0  0  0  0  0  0  0  0  0
   24.8160    7.2110   -6.1910 C   0  0  0  0  0  0  0  0  0  0  0  0
   24.9370    8.5350   -5.7830 C   0  0  0  0  0  0  0  0  0  0  0  0
   25.6180    9.4490   -6.5820 C   0  0  0  0  0  0  0  0  0  0  0  0
   26.1990    9.0300   -7.7730 C   0  0  0  0  0  0  0  0  0  0  0  0
   24.2070    6.3920   -5.4780 O   0  0  0  0  0  0  0  0  0  0  0  0
   25.8540   10.8250   -6.4090 C   0  0  0  0  0  0  0  0  0  0  0  0
   26.5160   11.6320   -7.1810 N   0  0  0  0  0  0  0  0  0  0  0  0
   26.3870   12.8900   -6.5410 O   0  0  0  0  0  0  0  0  0  0  0  0
   25.2760   11.5180   -5.2560 C   0  0  0  0  0  0  0  0  0  0  0  0
   25.7270   12.8490   -5.4800 C   0  0  0  0  0  0  0  0  0  0  0  0
   27.6800   12.2050  -11.5220 C   0  0  1  0  0  0  0  0  0  0  0  0
   28.3330    6.1295  -10.5073 H   0  0  0  0  0  0  0  0  0  0  0  0
   30.0480    7.1203  -11.9566 H   0  0  0  0  0  0  0  0  0  0  0  0
   26.1794    6.3804   -9.8374 H   0  0  0  0  0  0  0  0  0  0  0  0
   26.5263   10.0286  -10.1561 H   0  0  0  0  0  0  0  0  0  0  0  0
   30.1164   12.0086  -13.1497 H   0  0  0  0  0  0  0  0  0  0  0  0
   25.2825    5.8227   -7.6998 H   0  0  0  0  0  0  0  0  0  0  0  0
   24.4949    8.8597   -4.8295 H   0  0  0  0  0  0  0  0  0  0  0  0
   26.7763    9.7410   -8.3822 H   0  0  0  0  0  0  0  0  0  0  0  0
   24.6595   11.1178   -4.4376 H   0  0  0  0  0  0  0  0  0  0  0  0
   25.5263   13.7076   -4.8224 H   0  0  0  0  0  0  0  0  0  0  0  0
   27.5927   12.3244  -10.4320 H   0  0  0  0  0  0  0  0  0  0  0  0
   28.1306   13.1102  -11.9551 H   0  0  0  0  0  0  0  0  0  0  0  0
   26.6808   12.0496  -11.9551 H   0  0  0  0  0  0  0  0  0  0  0  0
  4  1  1  0
  4 11  1  0
  1  2  2  0
  1  7  1  0
  2  3  1  0
  3  5  1  0
  5  8  2  0
  5  6  1  0
  6 10  1  0
  6  7  2  0
  8  9  1  0
  9 10  2  0
 10 23  1  0
 11 16  2  0
 11 12  1  0
 12 13  1  0
 13 14  1  0
 13 17  2  0
 14 15  2  0
 15 16  1  0
 15 18  1  0
 18 19  2  0
 18 21  1  0
 19 20  1  0
 20 22  1  0
 21 22  2  0
  2 24  1  0
  3 25  1  0
  4 26  1  0
  7 27  1  0
  9 28  1  0
 12 29  1  0
 14 30  1  0
 16 31  1  0
 21 32  1  0
 22 33  1  0
 23 34  1  1
 23 35  1  0
 23 36  1  0
M  END
>  <Pose ID>  (304)
130

>  <Score>  (304)
-5.975837230682373

>  <smiles>  (304)
Cc1cnc2[nH]cc(Nc3cc(-c4ccon4)cc(=O)[nH]3)cc1-2

$$$$

     RDKit          3D

 40 43  0  0  0  0  0  0  0  0999 V2000
   27.3130    7.9620  -10.1660 C   0  0  0  0  0  0  0  0  0  0  0  0
   28.4020    7.1870  -10.5300 C   0  0  0  0  0  0  0  0  0  0  0  0
   29.3770    7.7090  -11.3720 N   0  0  0  0  0  0  0  0  0  0  0  0
   26.5190    7.2510   -9.3490 N   0  0  0  0  0  0  0  0  0  0  0  0
   29.2600    9.0100  -11.8470 C   0  0  0  0  0  0  0  0  0  0  0  0
   28.1690    9.7870  -11.4800 C   0  0  0  0  0  0  0  0  0  0  0  0
   27.1940    9.2660  -10.6410 C   0  0  0  0  0  0  0  0  0  0  0  0
   30.0620    9.7260  -12.6560 N   0  0  0  0  0  0  0  0  0  0  0  0
   29.5090   10.9730  -12.8330 C   0  0  0  0  0  0  0  0  0  0  0  0
   28.3410   10.8500  -12.0510 C   0  0  0  0  0  0  0  0  0  0  0  0
   25.9670    7.7830   -8.1430 C   0  0  0  0  0  0  0  0  0  0  0  0
   25.3350    6.9090   -7.2670 N   0  0  0  0  0  0  0  0  0  0  0  0
   24.6820    7.4010   -6.1430 C   0  0  0  0  0  0  0  0  0  0  0  0
   24.6640    8.7700   -5.8940 C   0  0  0  0  0  0  0  0  0  0  0  0
   25.2980    9.6440   -6.7700 C   0  0  0  0  0  0  0  0  0  0  0  0
   25.9770    9.1440   -7.8800 C   0  0  0  0  0  0  0  0  0  0  0  0
   23.9820    6.7410   -5.1280 C   0  0  0  0  0  0  0  0  0  0  0  0
   23.6740    7.7130   -4.2000 N   0  0  0  0  0  0  0  0  0  0  0  0
   24.0700    8.8980   -4.5320 C   0  0  0  0  0  0  0  0  0  0  0  0
   23.9650   10.0470   -3.7800 O   0  0  0  0  0  0  0  0  0  0  0  0
   23.3380    9.8240   -2.5020 C   0  0  1  0  0  0  0  0  0  0  0  0
   27.3510   11.9800  -11.9290 C   0  0  1  0  0  0  0  0  0  0  0  0
   21.8280   10.0290   -2.5050 C   0  0  1  0  0  0  0  0  0  0  0  0
   28.4952    6.1580  -10.1525 H   0  0  0  0  0  0  0  0  0  0  0  0
   30.1858    7.1320  -11.6438 H   0  0  0  0  0  0  0  0  0  0  0  0
   26.2978    6.2777   -9.6032 H   0  0  0  0  0  0  0  0  0  0  0  0
   26.3293    9.8813  -10.3518 H   0  0  0  0  0  0  0  0  0  0  0  0
   29.8753   11.8278  -13.4205 H   0  0  0  0  0  0  0  0  0  0  0  0
   25.3504    5.8956   -7.4507 H   0  0  0  0  0  0  0  0  0  0  0  0
   25.2638   10.7282   -6.5874 H   0  0  0  0  0  0  0  0  0  0  0  0
   26.5206    9.8292   -8.5470 H   0  0  0  0  0  0  0  0  0  0  0  0
   23.7301    5.6713   -5.0801 H   0  0  0  0  0  0  0  0  0  0  0  0
   23.5454    8.7893   -2.1914 H   0  0  0  0  0  0  0  0  0  0  0  0
   23.7575   10.5681   -1.8090 H   0  0  0  0  0  0  0  0  0  0  0  0
   27.1655   12.1917  -10.8656 H   0  0  0  0  0  0  0  0  0  0  0  0
   27.7581   12.8783  -12.4162 H   0  0  0  0  0  0  0  0  0  0  0  0
   26.4070   11.6946  -12.4162 H   0  0  0  0  0  0  0  0  0  0  0  0
   21.4626   10.0786   -1.4686 H   0  0  0  0  0  0  0  0  0  0  0  0
   21.5865   10.9682   -3.0243 H   0  0  0  0  0  0  0  0  0  0  0  0
   21.3449    9.1882   -3.0243 H   0  0  0  0  0  0  0  0  0  0  0  0
  4  1  1  0
  4 11  1  0
  1  7  1  0
  1  2  2  0
  2  3  1  0
  3  5  1  0
  5  8  2  0
  5  6  1  0
  6 10  1  0
  6  7  2  0
  8  9  1  0
  9 10  2  0
 10 22  1  0
 11 16  2  0
 11 12  1  0
 12 13  1  0
 13 14  1  0
 13 17  2  0
 14 15  2  0
 14 19  1  0
 15 16  1  0
 17 18  1  0
 18 19  2  0
 19 20  1  0
 20 21  1  0
 21 23  1  0
  2 24  1  0
  3 25  1  0
  4 26  1  0
  7 27  1  0
  9 28  1  0
 12 29  1  0
 15 30  1  0
 16 31  1  0
 17 32  1  0
 21 33  1  1
 21 34  1  0
 22 35  1  1
 22 36  1  0
 22 37  1  0
 23 38  1  1
 23 39  1  0
 23 40  1  0
M  END
>  <Pose ID>  (305)
66

>  <Score>  (305)
-5.975741386413574

>  <smiles>  (305)
CCOc1ncc2[nH]c(Nc3c[nH]c4ncc(C)c-4c3)ccc1-2

$$$$

     RDKit          3D

 36 39  0  0  0  0  0  0  0  0999 V2000
   27.3690    8.0510  -10.1590 C   0  0  0  0  0  0  0  0  0  0  0  0
   28.3880    7.2180  -10.5940 C   0  0  0  0  0  0  0  0  0  0  0  0
   29.3850    7.7180  -11.4240 N   0  0  0  0  0  0  0  0  0  0  0  0
   26.5380    7.3530   -9.3670 N   0  0  0  0  0  0  0  0  0  0  0  0
   29.3610    9.0500  -11.8160 C   0  0  0  0  0  0  0  0  0  0  0  0
   28.3380    9.8830  -11.3790 C   0  0  0  0  0  0  0  0  0  0  0  0
   27.3430    9.3870  -10.5510 C   0  0  0  0  0  0  0  0  0  0  0  0
   30.1990    9.7510  -12.5990 N   0  0  0  0  0  0  0  0  0  0  0  0
   29.7420   11.0460  -12.6880 C   0  0  0  0  0  0  0  0  0  0  0  0
   28.5810   10.9620  -11.8900 C   0  0  0  0  0  0  0  0  0  0  0  0
   26.0510    7.8480   -8.1200 C   0  0  0  0  0  0  0  0  0  0  0  0
   25.3670    6.9730   -7.2840 N   0  0  0  0  0  0  0  0  0  0  0  0
   24.7760    7.4430   -6.1170 C   0  0  0  0  0  0  0  0  0  0  0  0
   24.8670    8.7890   -5.7870 C   0  0  0  0  0  0  0  0  0  0  0  0
   25.5500    9.6660   -6.6230 C   0  0  0  0  0  0  0  0  0  0  0  0
   26.1670    9.1870   -7.7750 C   0  0  0  0  0  0  0  0  0  0  0  0
   24.0460    6.7760   -5.1290 C   0  0  0  0  0  0  0  0  0  0  0  0
   23.8300    7.7080   -4.1370 N   0  0  0  0  0  0  0  0  0  0  0  0
   24.3090    8.8800   -4.4060 C   0  0  0  0  0  0  0  0  0  0  0  0
   25.6210   11.1350   -6.2820 C   0  0  1  0  0  0  0  0  0  0  0  0
   30.3200   12.2250  -13.4310 C   0  0  1  0  0  0  0  0  0  0  0  0
   28.4078    6.1631  -10.2830 H   0  0  0  0  0  0  0  0  0  0  0  0
   30.1423    7.0998  -11.7485 H   0  0  0  0  0  0  0  0  0  0  0  0
   26.2383    6.4167   -9.6741 H   0  0  0  0  0  0  0  0  0  0  0  0
   26.5345   10.0474  -10.2043 H   0  0  0  0  0  0  0  0  0  0  0  0
   27.9250   11.8315  -11.7363 H   0  0  0  0  0  0  0  0  0  0  0  0
   25.2980    5.9751   -7.5296 H   0  0  0  0  0  0  0  0  0  0  0  0
   26.7471    9.8705   -8.4125 H   0  0  0  0  0  0  0  0  0  0  0  0
   23.7137    5.7275   -5.1408 H   0  0  0  0  0  0  0  0  0  0  0  0
   24.3055    9.7631   -3.7502 H   0  0  0  0  0  0  0  0  0  0  0  0
   25.6269   11.2578   -5.1889 H   0  0  0  0  0  0  0  0  0  0  0  0
   26.5410   11.5654   -6.7043 H   0  0  0  0  0  0  0  0  0  0  0  0
   24.7468   11.6521   -6.7043 H   0  0  0  0  0  0  0  0  0  0  0  0
   30.6853   12.9701  -12.7090 H   0  0  0  0  0  0  0  0  0  0  0  0
   31.1545   11.8869  -14.0629 H   0  0  0  0  0  0  0  0  0  0  0  0
   29.5416   12.6776  -14.0629 H   0  0  0  0  0  0  0  0  0  0  0  0
  4  1  1  0
  4 11  1  0
  1  2  2  0
  1  7  1  0
  2  3  1  0
  3  5  1  0
  5  8  2  0
  5  6  1  0
  6 10  1  0
  6  7  2  0
  8  9  1  0
  9 21  1  0
  9 10  2  0
 11 16  2  0
 11 12  1  0
 12 13  1  0
 13 14  1  0
 13 17  2  0
 14 15  2  0
 14 19  1  0
 15 16  1  0
 15 20  1  0
 17 18  1  0
 18 19  2  0
  2 22  1  0
  3 23  1  0
  4 24  1  0
  7 25  1  0
 10 26  1  0
 12 27  1  0
 16 28  1  0
 17 29  1  0
 19 30  1  0
 20 31  1  1
 20 32  1  0
 20 33  1  0
 21 34  1  1
 21 35  1  0
 21 36  1  0
M  END
>  <Pose ID>  (306)
83

>  <Score>  (306)
-5.972568035125732

>  <smiles>  (306)
Cc1cc2cc(Nc3cc(C)c4cncc-4[nH]3)c[nH]c-2n1

$$$$

     RDKit          3D

 36 39  0  0  0  0  0  0  0  0999 V2000
   27.3580    8.0430  -10.2870 C   0  0  0  0  0  0  0  0  0  0  0  0
   28.3460    7.2150  -10.7970 C   0  0  0  0  0  0  0  0  0  0  0  0
   29.3440    7.7400  -11.6070 N   0  0  0  0  0  0  0  0  0  0  0  0
   26.5190    7.3160   -9.5310 N   0  0  0  0  0  0  0  0  0  0  0  0
   29.3540    9.0980  -11.9060 C   0  0  0  0  0  0  0  0  0  0  0  0
   28.3630    9.9280  -11.3940 C   0  0  0  0  0  0  0  0  0  0  0  0
   27.3650    9.4030  -10.5850 C   0  0  0  0  0  0  0  0  0  0  0  0
   30.2000    9.8280  -12.6520 N   0  0  0  0  0  0  0  0  0  0  0  0
   29.7790   11.1390  -12.6420 C   0  0  0  0  0  0  0  0  0  0  0  0
   28.6300   11.0340  -11.8300 C   0  0  0  0  0  0  0  0  0  0  0  0
   26.0660    7.7340   -8.2440 C   0  0  0  0  0  0  0  0  0  0  0  0
   25.3700    6.8220   -7.4600 N   0  0  0  0  0  0  0  0  0  0  0  0
   24.8110    7.2250   -6.2520 C   0  0  0  0  0  0  0  0  0  0  0  0
   24.9470    8.5430   -5.8300 C   0  0  0  0  0  0  0  0  0  0  0  0
   25.6440    9.4560   -6.6160 C   0  0  0  0  0  0  0  0  0  0  0  0
   26.2270    9.0420   -7.8080 C   0  0  0  0  0  0  0  0  0  0  0  0
   24.1870    6.4080   -5.5520 O   0  0  0  0  0  0  0  0  0  0  0  0
   25.8970   10.8270   -6.4280 C   0  0  0  0  0  0  0  0  0  0  0  0
   26.5750   11.6330   -7.1880 N   0  0  0  0  0  0  0  0  0  0  0  0
   26.4580   12.8860   -6.5350 O   0  0  0  0  0  0  0  0  0  0  0  0
   25.3210   11.5170   -5.2710 C   0  0  0  0  0  0  0  0  0  0  0  0
   25.7920   12.8440   -5.4790 C   0  0  0  0  0  0  0  0  0  0  0  0
   30.3780   12.3500  -13.3120 C   0  0  1  0  0  0  0  0  0  0  0  0
   28.3393    6.1409  -10.5597 H   0  0  0  0  0  0  0  0  0  0  0  0
   30.0769    7.1237  -11.9864 H   0  0  0  0  0  0  0  0  0  0  0  0
   26.1864    6.4129   -9.8980 H   0  0  0  0  0  0  0  0  0  0  0  0
   26.5812   10.0600  -10.1801 H   0  0  0  0  0  0  0  0  0  0  0  0
   28.0046   11.9095  -11.6013 H   0  0  0  0  0  0  0  0  0  0  0  0
   25.2680    5.8463   -7.7739 H   0  0  0  0  0  0  0  0  0  0  0  0
   24.5040    8.8638   -4.8756 H   0  0  0  0  0  0  0  0  0  0  0  0
   26.8167    9.7518   -8.4066 H   0  0  0  0  0  0  0  0  0  0  0  0
   24.6939   11.1174   -4.4604 H   0  0  0  0  0  0  0  0  0  0  0  0
   25.5996   13.6988   -4.8139 H   0  0  0  0  0  0  0  0  0  0  0  0
   30.7279   13.0574  -12.5458 H   0  0  0  0  0  0  0  0  0  0  0  0
   31.2265   12.0397  -13.9395 H   0  0  0  0  0  0  0  0  0  0  0  0
   29.6165   12.8361  -13.9395 H   0  0  0  0  0  0  0  0  0  0  0  0
  4  1  1  0
  4 11  1  0
  1  2  2  0
  1  7  1  0
  2  3  1  0
  3  5  1  0
  5  8  2  0
  5  6  1  0
  6 10  1  0
  6  7  2  0
  8  9  1  0
  9 23  1  0
  9 10  2  0
 11 16  2  0
 11 12  1  0
 12 13  1  0
 13 14  1  0
 13 17  2  0
 14 15  2  0
 15 16  1  0
 15 18  1  0
 18 19  2  0
 18 21  1  0
 19 20  1  0
 20 22  1  0
 21 22  2  0
  2 24  1  0
  3 25  1  0
  4 26  1  0
  7 27  1  0
 10 28  1  0
 12 29  1  0
 14 30  1  0
 16 31  1  0
 21 32  1  0
 22 33  1  0
 23 34  1  1
 23 35  1  0
 23 36  1  0
M  END
>  <Pose ID>  (307)
129

>  <Score>  (307)
-5.972476005554199

>  <smiles>  (307)
Cc1cc2cc(Nc3cc(-c4ccon4)cc(=O)[nH]3)c[nH]c-2n1

$$$$

     RDKit          3D

 36 39  0  0  0  0  0  0  0  0999 V2000
   27.2680    7.9750  -10.1960 C   0  0  0  0  0  0  0  0  0  0  0  0
   28.2960    7.1750  -10.6670 C   0  0  0  0  0  0  0  0  0  0  0  0
   29.2800    7.7170  -11.4840 N   0  0  0  0  0  0  0  0  0  0  0  0
   26.4510    7.2390   -9.4270 N   0  0  0  0  0  0  0  0  0  0  0  0
   29.2360    9.0630  -11.8270 C   0  0  0  0  0  0  0  0  0  0  0  0
   28.2040    9.8650  -11.3540 C   0  0  0  0  0  0  0  0  0  0  0  0
   27.2210    9.3240  -10.5380 C   0  0  0  0  0  0  0  0  0  0  0  0
   30.0600    9.8060  -12.5870 N   0  0  0  0  0  0  0  0  0  0  0  0
   29.5810   11.0960  -12.6260 C   0  0  0  0  0  0  0  0  0  0  0  0
   28.4290   10.9670  -11.8250 C   0  0  0  0  0  0  0  0  0  0  0  0
   25.9640    7.6780   -8.1590 C   0  0  0  0  0  0  0  0  0  0  0  0
   25.2990    6.7630   -7.3520 N   0  0  0  0  0  0  0  0  0  0  0  0
   24.7070    7.1810   -6.1660 C   0  0  0  0  0  0  0  0  0  0  0  0
   24.7840    8.5160   -5.7870 C   0  0  0  0  0  0  0  0  0  0  0  0
   25.4490    9.4300   -6.5930 C   0  0  0  0  0  0  0  0  0  0  0  0
   26.0630    9.0050   -7.7630 C   0  0  0  0  0  0  0  0  0  0  0  0
   24.1120    6.3610   -5.4440 O   0  0  0  0  0  0  0  0  0  0  0  0
   25.6390   10.8160   -6.4490 C   0  0  0  0  0  0  0  0  0  0  0  0
   25.0970   11.7820   -7.2330 O   0  0  0  0  0  0  0  0  0  0  0  0
   25.5730   12.9310   -6.7370 C   0  0  0  0  0  0  0  0  0  0  0  0
   26.3610   11.4080   -5.4260 N   0  0  0  0  0  0  0  0  0  0  0  0
   26.3590   12.7360   -5.5980 C   0  0  0  0  0  0  0  0  0  0  0  0
   25.2930   14.2850   -7.3410 C   0  0  1  0  0  0  0  0  0  0  0  0
   28.3332    6.1101  -10.3940 H   0  0  0  0  0  0  0  0  0  0  0  0
   30.0428    7.1209  -11.8358 H   0  0  0  0  0  0  0  0  0  0  0  0
   26.1610    6.3115   -9.7685 H   0  0  0  0  0  0  0  0  0  0  0  0
   26.4059    9.9596  -10.1618 H   0  0  0  0  0  0  0  0  0  0  0  0
   29.9850   11.9809  -13.1394 H   0  0  0  0  0  0  0  0  0  0  0  0
   27.7631   11.8213  -11.6333 H   0  0  0  0  0  0  0  0  0  0  0  0
   25.2447    5.7736   -7.6331 H   0  0  0  0  0  0  0  0  0  0  0  0
   24.3177    8.8485   -4.8478 H   0  0  0  0  0  0  0  0  0  0  0  0
   26.6289    9.7207   -8.3774 H   0  0  0  0  0  0  0  0  0  0  0  0
   26.8608   13.4983   -4.9839 H   0  0  0  0  0  0  0  0  0  0  0  0
   25.1409   15.0206   -6.5374 H   0  0  0  0  0  0  0  0  0  0  0  0
   26.1465   14.5926   -7.9630 H   0  0  0  0  0  0  0  0  0  0  0  0
   24.3875   14.2289   -7.9630 H   0  0  0  0  0  0  0  0  0  0  0  0
 11  4  1  0
 11 16  2  0
 11 12  1  0
 12 13  1  0
 13 14  1  0
 13 17  2  0
 14 15  2  0
 15 16  1  0
 15 18  1  0
 18 19  1  0
 18 21  2  0
 19 20  1  0
 20 23  1  0
 20 22  2  0
 21 22  1  0
  4  1  1  0
  1  2  2  0
  1  7  1  0
  2  3  1  0
  3  5  1  0
  5  8  2  0
  5  6  1  0
  6 10  1  0
  6  7  2  0
  8  9  1  0
  9 10  2  0
  2 24  1  0
  3 25  1  0
  4 26  1  0
  7 27  1  0
  9 28  1  0
 10 29  1  0
 12 30  1  0
 14 31  1  0
 16 32  1  0
 22 33  1  0
 23 34  1  1
 23 35  1  0
 23 36  1  0
M  END
>  <Pose ID>  (308)
137

>  <Score>  (308)
-5.971933841705322

>  <smiles>  (308)
Cc1cnc(-c2cc(Nc3c[nH]c4nccc-4c3)[nH]c(=O)c2)o1

$$$$

     RDKit          3D

 36 39  0  0  0  0  0  0  0  0999 V2000
   27.2880    7.8670  -10.1860 C   0  0  0  0  0  0  0  0  0  0  0  0
   28.4110    7.1340  -10.5330 C   0  0  0  0  0  0  0  0  0  0  0  0
   29.3900    7.7020  -11.3390 N   0  0  0  0  0  0  0  0  0  0  0  0
   26.4950    7.1200   -9.4020 N   0  0  0  0  0  0  0  0  0  0  0  0
   29.2450    9.0070  -11.7950 C   0  0  0  0  0  0  0  0  0  0  0  0
   28.1190    9.7420  -11.4470 C   0  0  0  0  0  0  0  0  0  0  0  0
   27.1400    9.1750  -10.6420 C   0  0  0  0  0  0  0  0  0  0  0  0
   30.0420    9.7620  -12.5680 N   0  0  0  0  0  0  0  0  0  0  0  0
   29.4660   10.9570  -12.7280 C   0  0  0  0  0  0  0  0  0  0  0  0
   28.2560   10.9370  -12.0420 C   0  0  0  0  0  0  0  0  0  0  0  0
   25.8960    7.6090   -8.2030 C   0  0  0  0  0  0  0  0  0  0  0  0
   25.2660    6.7000   -7.3590 N   0  0  0  0  0  0  0  0  0  0  0  0
   24.5680    7.1510   -6.2460 C   0  0  0  0  0  0  0  0  0  0  0  0
   24.4990    8.5150   -5.9750 C   0  0  0  0  0  0  0  0  0  0  0  0
   25.1280    9.4250   -6.8200 C   0  0  0  0  0  0  0  0  0  0  0  0
   25.8500    8.9670   -7.9170 C   0  0  0  0  0  0  0  0  0  0  0  0
   24.0080    6.3380   -5.4920 O   0  0  0  0  0  0  0  0  0  0  0  0
   29.8490   12.0970  -13.4250 C   0  0  0  0  0  0  0  0  0  0  0  0
   29.0250   13.2170  -13.4360 N   0  0  0  0  0  0  0  0  0  0  0  0
   27.8160   13.1950  -12.7510 C   0  0  0  0  0  0  0  0  0  0  0  0
   27.4320   12.0560  -12.0540 C   0  0  0  0  0  0  0  0  0  0  0  0
   23.8080    8.9640   -4.8710 O   0  0  0  0  0  0  0  0  0  0  0  0
   23.3490   10.2450   -4.4150 C   0  0  1  0  0  0  0  0  0  0  0  0
   28.5278    6.1021  -10.1704 H   0  0  0  0  0  0  0  0  0  0  0  0
   30.2237    7.1557  -11.5987 H   0  0  0  0  0  0  0  0  0  0  0  0
   26.3097    6.1456   -9.6797 H   0  0  0  0  0  0  0  0  0  0  0  0
   26.2491    9.7576  -10.3648 H   0  0  0  0  0  0  0  0  0  0  0  0
   25.3172    5.6911   -7.5598 H   0  0  0  0  0  0  0  0  0  0  0  0
   25.0542   10.5042   -6.6205 H   0  0  0  0  0  0  0  0  0  0  0  0
   26.3855    9.6818   -8.5591 H   0  0  0  0  0  0  0  0  0  0  0  0
   30.8052   12.1132  -13.9686 H   0  0  0  0  0  0  0  0  0  0  0  0
   27.1626   14.0799  -12.7606 H   0  0  0  0  0  0  0  0  0  0  0  0
   26.4753   12.0400  -11.5114 H   0  0  0  0  0  0  0  0  0  0  0  0
   23.3429   10.2621   -3.3151 H   0  0  0  0  0  0  0  0  0  0  0  0
   24.0217   11.0304   -4.7902 H   0  0  0  0  0  0  0  0  0  0  0  0
   22.3306   10.4244   -4.7902 H   0  0  0  0  0  0  0  0  0  0  0  0
  1  7  1  0
  1  2  2  0
  1  4  1  0
  2  3  1  0
  3  5  1  0
  5  8  2  0
  5  6  1  0
  6 10  1  0
  6  7  2  0
  8  9  1  0
  9 18  1  0
  9 10  2  0
 10 21  1  0
 18 19  2  0
 19 20  1  0
 20 21  2  0
  4 11  1  0
 11 16  2  0
 11 12  1  0
 12 13  1  0
 13 14  1  0
 13 17  2  0
 14 15  2  0
 14 22  1  0
 15 16  1  0
 22 23  1  0
  2 24  1  0
  3 25  1  0
  4 26  1  0
  7 27  1  0
 12 28  1  0
 15 29  1  0
 16 30  1  0
 18 31  1  0
 20 32  1  0
 21 33  1  0
 23 34  1  1
 23 35  1  0
 23 36  1  0
M  END
>  <Pose ID>  (309)
121

>  <Score>  (309)
-5.961950778961182

>  <smiles>  (309)
COc1ccc(Nc2c[nH]c3nc4cnccc4c-3c2)[nH]c1=O

$$$$

     RDKit          3D

 44 47  0  0  0  0  0  0  0  0999 V2000
   27.8890    7.8580  -10.2680 C   0  0  0  0  0  0  0  0  0  0  0  0
   28.8670    7.1350  -10.9390 C   0  0  0  0  0  0  0  0  0  0  0  0
   29.7200    7.7770  -11.8250 N   0  0  0  0  0  0  0  0  0  0  0  0
   29.5950    9.1450  -12.0440 C   0  0  0  0  0  0  0  0  0  0  0  0
   27.0820    7.0390   -9.3670 O   0  0  0  0  0  0  0  0  0  0  0  0
   28.6140    9.8680  -11.3740 C   0  0  0  0  0  0  0  0  0  0  0  0
   27.7630    9.2240  -10.4850 C   0  0  0  0  0  0  0  0  0  0  0  0
   30.2910    9.9800  -12.8410 N   0  0  0  0  0  0  0  0  0  0  0  0
   29.7760   11.2500  -12.7080 C   0  0  0  0  0  0  0  0  0  0  0  0
   28.7440   11.0110  -11.7730 C   0  0  0  0  0  0  0  0  0  0  0  0
   26.2440    7.5570   -8.3740 C   0  0  0  0  0  0  0  0  0  0  0  0
   25.4220    8.6150   -8.7300 N   0  0  0  0  0  0  0  0  0  0  0  0
   24.7060    8.9930   -7.6090 N   0  0  0  0  0  0  0  0  0  0  0  0
   25.0540    8.1920   -6.5930 C   0  0  0  0  0  0  0  0  0  0  0  0
   25.9620    7.3180   -7.0390 C   0  0  0  0  0  0  0  0  0  0  0  0
   23.7600   10.0770   -7.6690 C   0  0  1  0  0  0  0  0  0  0  0  0
   30.1950   12.5370  -13.3730 C   0  0  1  0  0  0  0  0  0  0  0  0
   24.4520    8.4170   -5.3860 N   0  0  0  0  0  0  0  0  0  0  0  0
   23.3890    7.5810   -4.8070 C   0  0  1  0  0  0  0  0  0  0  0  0
   24.7800    9.5880   -4.5860 C   0  0  1  0  0  0  0  0  0  0  0  0
   23.5340    9.6990   -3.6490 C   0  0  1  0  0  0  0  0  0  0  0  0
   23.1520    8.2590   -3.3810 C   0  0  1  0  0  0  0  0  0  0  0  0
   27.8450   12.1230  -11.2920 C   0  0  1  0  0  0  0  0  0  0  0  0
   28.9652    6.0529  -10.7678 H   0  0  0  0  0  0  0  0  0  0  0  0
   30.4461    7.2405  -12.3208 H   0  0  0  0  0  0  0  0  0  0  0  0
   26.9889    9.7961   -9.9526 H   0  0  0  0  0  0  0  0  0  0  0  0
   26.4198    6.5227   -6.4325 H   0  0  0  0  0  0  0  0  0  0  0  0
   23.4907   10.3856   -6.6481 H   0  0  0  0  0  0  0  0  0  0  0  0
   24.2100   10.9273   -8.2024 H   0  0  0  0  0  0  0  0  0  0  0  0
   22.8566    9.7462   -8.2024 H   0  0  0  0  0  0  0  0  0  0  0  0
   30.4385   13.2848  -12.6039 H   0  0  0  0  0  0  0  0  0  0  0  0
   31.0801   12.3545  -14.0001 H   0  0  0  0  0  0  0  0  0  0  0  0
   29.3721   12.9105  -14.0001 H   0  0  0  0  0  0  0  0  0  0  0  0
   22.4767    7.6170   -5.4205 H   0  0  0  0  0  0  0  0  0  0  0  0
   23.6542    6.5152   -4.7465 H   0  0  0  0  0  0  0  0  0  0  0  0
   25.7026    9.4316   -4.0077 H   0  0  0  0  0  0  0  0  0  0  0  0
   24.9701   10.4933   -5.1812 H   0  0  0  0  0  0  0  0  0  0  0  0
   23.7926   10.2162   -2.7132 H   0  0  0  0  0  0  0  0  0  0  0  0
   22.7147   10.2790   -4.0988 H   0  0  0  0  0  0  0  0  0  0  0  0
   22.1005    8.1760   -3.0689 H   0  0  0  0  0  0  0  0  0  0  0  0
   23.7264    7.7921   -2.5673 H   0  0  0  0  0  0  0  0  0  0  0  0
   27.8344   12.1361  -10.1921 H   0  0  0  0  0  0  0  0  0  0  0  0
   28.2210   13.0865  -11.6666 H   0  0  0  0  0  0  0  0  0  0  0  0
   26.8241   11.9572  -11.6666 H   0  0  0  0  0  0  0  0  0  0  0  0
  1  2  2  0
  1  7  1  0
  1  5  1  0
  2  3  1  0
  3  4  1  0
  4  8  2  0
  4  6  1  0
  6 10  1  0
  6  7  2  0
  8  9  1  0
  9 17  1  0
  9 10  2  0
 10 23  1  0
  5 11  1  0
 11 12  2  0
 11 15  1  0
 12 13  1  0
 13 16  1  0
 13 14  1  0
 14 15  2  0
 14 18  1  0
 18 19  1  0
 18 20  1  0
 19 22  1  0
 20 21  1  0
 21 22  1  0
  2 24  1  0
  3 25  1  0
  7 26  1  0
 15 27  1  0
 16 28  1  1
 16 29  1  0
 16 30  1  0
 17 31  1  1
 17 32  1  0
 17 33  1  0
 19 34  1  6
 19 35  1  0
 20 36  1  1
 20 37  1  0
 21 38  1  1
 21 39  1  0
 22 40  1  1
 22 41  1  0
 23 42  1  1
 23 43  1  0
 23 44  1  0
M  END
>  <Pose ID>  (310)
487

>  <Score>  (310)
-5.960757732391357

>  <smiles>  (310)
Cc1nc2[nH]cc(Oc3cc(N4CCCC4)n(C)n3)cc-2c1C

$$$$

     RDKit          3D

 36 39  0  0  0  0  0  0  0  0999 V2000
   27.5640    7.7190  -10.1150 C   0  0  0  0  0  0  0  0  0  0  0  0
   28.3270    7.0330  -11.0510 C   0  0  0  0  0  0  0  0  0  0  0  0
   29.1120    7.7370  -11.9560 N   0  0  0  0  0  0  0  0  0  0  0  0
   29.1350    9.1250  -11.9270 C   0  0  0  0  0  0  0  0  0  0  0  0
   26.8030    6.8380   -9.2320 O   0  0  0  0  0  0  0  0  0  0  0  0
   28.3710    9.8120  -10.9890 C   0  0  0  0  0  0  0  0  0  0  0  0
   27.5880    9.1080  -10.0830 C   0  0  0  0  0  0  0  0  0  0  0  0
   29.8020   10.0140  -12.6870 N   0  0  0  0  0  0  0  0  0  0  0  0
   29.4850   11.2840  -12.2640 C   0  0  0  0  0  0  0  0  0  0  0  0
   28.5850   10.9880  -11.2160 C   0  0  0  0  0  0  0  0  0  0  0  0
   26.2000    7.2500   -8.0380 C   0  0  0  0  0  0  0  0  0  0  0  0
   25.4800    8.4340   -8.0750 N   0  0  0  0  0  0  0  0  0  0  0  0
   24.9970    8.6750   -6.8000 N   0  0  0  0  0  0  0  0  0  0  0  0
   25.3900    7.6740   -6.0020 C   0  0  0  0  0  0  0  0  0  0  0  0
   26.0970    6.8080   -6.7330 C   0  0  0  0  0  0  0  0  0  0  0  0
   24.2590    9.7220   -6.4630 C   0  0  0  0  0  0  0  0  0  0  0  0
   24.7100   11.0260   -6.6320 C   0  0  0  0  0  0  0  0  0  0  0  0
   22.9840    9.4860   -5.9640 C   0  0  0  0  0  0  0  0  0  0  0  0
   22.1590   10.5530   -5.6320 N   0  0  0  0  0  0  0  0  0  0  0  0
   23.8830   12.0950   -6.3010 C   0  0  0  0  0  0  0  0  0  0  0  0
   22.6210   11.8760   -5.8250 C   0  0  0  0  0  0  0  0  0  0  0  0
   22.5810    8.3190   -5.8130 O   0  0  0  0  0  0  0  0  0  0  0  0
   24.3850   13.5070   -6.4680 C   0  0  1  0  0  0  0  0  0  0  0  0
   28.3099    5.9334  -11.0759 H   0  0  0  0  0  0  0  0  0  0  0  0
   29.6781    7.2281  -12.6499 H   0  0  0  0  0  0  0  0  0  0  0  0
   26.9862    9.6508   -9.3392 H   0  0  0  0  0  0  0  0  0  0  0  0
   29.8346   12.2579  -12.6374 H   0  0  0  0  0  0  0  0  0  0  0  0
   28.1000   11.7841  -10.6321 H   0  0  0  0  0  0  0  0  0  0  0  0
   25.1686    7.5809   -4.9286 H   0  0  0  0  0  0  0  0  0  0  0  0
   26.5354    5.8746   -6.3501 H   0  0  0  0  0  0  0  0  0  0  0  0
   25.7195   11.2126   -7.0270 H   0  0  0  0  0  0  0  0  0  0  0  0
   21.2185   10.3823   -5.2484 H   0  0  0  0  0  0  0  0  0  0  0  0
   21.9650   12.7277   -5.5921 H   0  0  0  0  0  0  0  0  0  0  0  0
   24.5455   13.9586   -5.4779 H   0  0  0  0  0  0  0  0  0  0  0  0
   25.3341   13.4954   -7.0240 H   0  0  0  0  0  0  0  0  0  0  0  0
   23.6416   14.0971   -7.0240 H   0  0  0  0  0  0  0  0  0  0  0  0
 11  5  1  0
 11 12  2  0
 11 15  1  0
 12 13  1  0
 13 16  1  0
 13 14  1  0
 14 15  2  0
 16 17  2  0
 16 18  1  0
 17 20  1  0
 18 22  2  0
 18 19  1  0
 19 21  1  0
 20 23  1  0
 20 21  2  0
  5  1  1  0
  1  2  2  0
  1  7  1  0
  2  3  1  0
  3  4  1  0
  4  8  2  0
  4  6  1  0
  6 10  1  0
  6  7  2  0
  8  9  1  0
  9 10  2  0
  2 24  1  0
  3 25  1  0
  7 26  1  0
  9 27  1  0
 10 28  1  0
 14 29  1  0
 15 30  1  0
 17 31  1  0
 19 32  1  0
 21 33  1  0
 23 34  1  1
 23 35  1  0
 23 36  1  0
M  END
>  <Pose ID>  (311)
243

>  <Score>  (311)
-5.958977222442627

>  <smiles>  (311)
Cc1c[nH]c(=O)c(-n2ccc(Oc3c[nH]c4nccc-4c3)n2)c1

$$$$

     RDKit          3D

 37 40  0  0  0  0  0  0  0  0999 V2000
   27.8420    7.8330  -10.2310 C   0  0  0  0  0  0  0  0  0  0  0  0
   28.8060    7.1210  -10.9320 C   0  0  0  0  0  0  0  0  0  0  0  0
   29.6350    7.7770  -11.8340 N   0  0  0  0  0  0  0  0  0  0  0  0
   29.5000    9.1460  -12.0350 C   0  0  0  0  0  0  0  0  0  0  0  0
   27.0590    7.0030   -9.3200 O   0  0  0  0  0  0  0  0  0  0  0  0
   28.5330    9.8590  -11.3320 C   0  0  0  0  0  0  0  0  0  0  0  0
   27.7060    9.2020  -10.4300 C   0  0  0  0  0  0  0  0  0  0  0  0
   30.1730    9.9910  -12.8400 N   0  0  0  0  0  0  0  0  0  0  0  0
   29.6560   11.2580  -12.6830 C   0  0  0  0  0  0  0  0  0  0  0  0
   28.6500   11.0060  -11.7250 C   0  0  0  0  0  0  0  0  0  0  0  0
   26.2420    7.5080   -8.3010 C   0  0  0  0  0  0  0  0  0  0  0  0
   25.4090    8.5650   -8.6280 N   0  0  0  0  0  0  0  0  0  0  0  0
   24.7570    8.9050   -7.5390 N   0  0  0  0  0  0  0  0  0  0  0  0
   25.0540    8.1430   -6.4170 C   0  0  0  0  0  0  0  0  0  0  0  0
   25.9950    7.2540   -6.9630 C   0  0  0  0  0  0  0  0  0  0  0  0
   23.8190    9.9280   -7.4550 C   0  0  0  0  0  0  0  0  0  0  0  0
   23.1790   10.1890   -6.2500 C   0  0  0  0  0  0  0  0  0  0  0  0
   23.4780    9.4260   -5.1270 C   0  0  0  0  0  0  0  0  0  0  0  0
   24.4140    8.4020   -5.2110 N   0  0  0  0  0  0  0  0  0  0  0  0
   22.7850    9.7090   -3.8170 C   0  0  1  0  0  0  0  0  0  0  0  0
   22.9720    8.6300   -2.7720 C   0  0  1  0  0  0  0  0  0  0  0  0
   27.7590   12.1090  -11.2100 C   0  0  1  0  0  0  0  0  0  0  0  0
   28.9135    6.0378  -10.7734 H   0  0  0  0  0  0  0  0  0  0  0  0
   30.3500    7.2486  -12.3540 H   0  0  0  0  0  0  0  0  0  0  0  0
   26.9430    9.7653   -9.8728 H   0  0  0  0  0  0  0  0  0  0  0  0
   29.9457   12.2018  -13.1681 H   0  0  0  0  0  0  0  0  0  0  0  0
   26.4800    6.4483   -6.3924 H   0  0  0  0  0  0  0  0  0  0  0  0
   23.5834   10.5315   -8.3440 H   0  0  0  0  0  0  0  0  0  0  0  0
   22.4367   10.9982   -6.1845 H   0  0  0  0  0  0  0  0  0  0  0  0
   23.1811   10.6526   -3.4137 H   0  0  0  0  0  0  0  0  0  0  0  0
   21.7075    9.7576   -4.0327 H   0  0  0  0  0  0  0  0  0  0  0  0
   22.8950    9.0741   -1.7686 H   0  0  0  0  0  0  0  0  0  0  0  0
   22.1935    7.8625   -2.8940 H   0  0  0  0  0  0  0  0  0  0  0  0
   23.9634    8.1693   -2.8940 H   0  0  0  0  0  0  0  0  0  0  0  0
   27.7649   12.1017  -10.1100 H   0  0  0  0  0  0  0  0  0  0  0  0
   28.1299   13.0792  -11.5722 H   0  0  0  0  0  0  0  0  0  0  0  0
   26.7325   11.9504  -11.5722 H   0  0  0  0  0  0  0  0  0  0  0  0
  5  1  1  0
  5 11  1  0
  1  2  2  0
  1  7  1  0
  2  3  1  0
  3  4  1  0
  4  8  2  0
  4  6  1  0
  6 10  1  0
  6  7  2  0
  8  9  1  0
  9 10  2  0
 10 22  1  0
 11 12  2  0
 11 15  1  0
 12 13  1  0
 13 16  1  0
 13 14  1  0
 14 15  2  0
 14 19  1  0
 16 17  2  0
 17 18  1  0
 18 19  2  0
 18 20  1  0
 20 21  1  0
  2 23  1  0
  3 24  1  0
  7 25  1  0
  9 26  1  0
 15 27  1  0
 16 28  1  0
 17 29  1  0
 20 30  1  1
 20 31  1  0
 21 32  1  1
 21 33  1  0
 21 34  1  0
 22 35  1  1
 22 36  1  0
 22 37  1  0
M  END
>  <Pose ID>  (312)
381

>  <Score>  (312)
-5.957147598266602

>  <smiles>  (312)
CCc1ccn2nc(Oc3c[nH]c4ncc(C)c-4c3)cc2n1

$$$$

     RDKit          3D

 27 29  0  0  0  0  0  0  0  0999 V2000
   27.4840    7.7290   -9.7770 C   0  0  0  0  0  0  0  0  0  0  0  0
   26.7370    6.7940   -9.0720 N   0  0  0  0  0  0  0  0  0  0  0  0
   25.9970    7.1870   -7.9650 C   0  0  0  0  0  0  0  0  0  0  0  0
   25.3210    6.1940   -7.3090 C   0  0  0  0  0  0  0  0  0  0  0  0
   24.5400    6.4810   -6.1980 N   0  0  0  0  0  0  0  0  0  0  0  0
   24.4450    7.7850   -5.7320 C   0  0  0  0  0  0  0  0  0  0  0  0
   25.1340    8.8070   -6.3770 C   0  0  0  0  0  0  0  0  0  0  0  0
   26.0030    8.5180   -7.5630 C   0  0  0  0  0  0  0  0  0  0  0  0
   27.4920    9.0600   -9.3740 C   0  0  0  0  0  0  0  0  0  0  0  0
   26.7500    9.4540   -8.2670 C   0  0  0  0  0  0  0  0  0  0  0  0
   28.2830    7.5890  -10.8860 N   0  0  0  0  0  0  0  0  0  0  0  0
   28.9950    8.4320  -11.5250 C   0  0  0  0  0  0  0  0  0  0  0  0
   30.3920    8.4250  -11.6670 N   0  0  0  0  0  0  0  0  0  0  0  0
   30.6950    9.5040  -12.3960 O   0  0  0  0  0  0  0  0  0  0  0  0
   29.6420   10.1660  -12.7260 C   0  0  0  0  0  0  0  0  0  0  0  0
   28.5300    9.4950  -12.2200 C   0  0  0  0  0  0  0  0  0  0  0  0
   26.7570   10.8980   -7.8310 C   0  0  1  0  0  0  0  0  0  0  0  0
   25.3975    5.1565   -7.6664 H   0  0  0  0  0  0  0  0  0  0  0  0
   23.8245    8.0104   -4.8521 H   0  0  0  0  0  0  0  0  0  0  0  0
   25.0397    9.8403   -6.0118 H   0  0  0  0  0  0  0  0  0  0  0  0
   28.0851    9.8003   -9.9310 H   0  0  0  0  0  0  0  0  0  0  0  0
   28.3120    6.6334  -11.2692 H   0  0  0  0  0  0  0  0  0  0  0  0
   29.6228   11.0999  -13.3069 H   0  0  0  0  0  0  0  0  0  0  0  0
   27.4757    9.7763  -12.3593 H   0  0  0  0  0  0  0  0  0  0  0  0
   26.7572   10.9492   -6.7322 H   0  0  0  0  0  0  0  0  0  0  0  0
   27.6576   11.3945   -8.2214 H   0  0  0  0  0  0  0  0  0  0  0  0
   25.8613   11.4032   -8.2214 H   0  0  0  0  0  0  0  0  0  0  0  0
  1 11  1  0
  1  9  1  0
  1  2  2  0
  2  3  1  0
  3  8  2  0
  3  4  1  0
  4  5  2  0
  5  6  1  0
  6  7  2  0
  7  8  1  0
  8 10  1  0
  9 10  2  0
 10 17  1  0
 11 12  1  0
 12 16  1  0
 12 13  2  0
 13 14  1  0
 14 15  1  0
 15 16  2  0
  4 18  1  0
  6 19  1  0
  7 20  1  0
  9 21  1  0
 11 22  1  0
 15 23  1  0
 16 24  1  0
 17 25  1  1
 17 26  1  0
 17 27  1  0
M  END
>  <Pose ID>  (313)
23

>  <Score>  (313)
-5.957040786743164

>  <smiles>  (313)
Cc1cc(Nc2ccon2)nc2cnccc12

$$$$

     RDKit          3D

 39 42  0  0  0  0  0  0  0  0999 V2000
   27.3880    7.9200  -10.1770 C   0  0  0  0  0  0  0  0  0  0  0  0
   28.5170    7.1720  -10.4690 C   0  0  0  0  0  0  0  0  0  0  0  0
   29.5050    7.6970  -11.2930 N   0  0  0  0  0  0  0  0  0  0  0  0
   26.5890    7.2140   -9.3620 N   0  0  0  0  0  0  0  0  0  0  0  0
   29.3620    8.9730  -11.8230 C   0  0  0  0  0  0  0  0  0  0  0  0
   28.2300    9.7220  -11.5300 C   0  0  0  0  0  0  0  0  0  0  0  0
   27.2430    9.2000  -10.7080 C   0  0  0  0  0  0  0  0  0  0  0  0
   30.1680    9.6840  -12.6320 N   0  0  0  0  0  0  0  0  0  0  0  0
   29.5790   10.9040  -12.8780 C   0  0  0  0  0  0  0  0  0  0  0  0
   28.3860   10.7680  -12.1380 C   0  0  0  0  0  0  0  0  0  0  0  0
   25.9720    7.7700   -8.1990 C   0  0  0  0  0  0  0  0  0  0  0  0
   25.3360    6.9080   -7.3140 N   0  0  0  0  0  0  0  0  0  0  0  0
   24.6240    7.4200   -6.2350 C   0  0  0  0  0  0  0  0  0  0  0  0
   24.5480    8.7940   -6.0430 C   0  0  0  0  0  0  0  0  0  0  0  0
   25.1840    9.6580   -6.9290 C   0  0  0  0  0  0  0  0  0  0  0  0
   25.9220    9.1410   -7.9910 C   0  0  0  0  0  0  0  0  0  0  0  0
   23.9100    6.7760   -5.2210 C   0  0  0  0  0  0  0  0  0  0  0  0
   23.5310    7.7690   -4.3460 N   0  0  0  0  0  0  0  0  0  0  0  0
   23.8970    8.9550   -4.7090 C   0  0  0  0  0  0  0  0  0  0  0  0
   23.7070   10.2390   -3.9420 C   0  0  1  0  0  0  0  0  0  0  0  0
   22.5670   11.0050   -4.4990 C   0  0  1  0  0  0  0  0  0  0  0  0
   22.3000   12.3110   -3.7750 C   0  0  1  0  0  0  0  0  0  0  0  0
   28.6313    6.1621  -10.0483 H   0  0  0  0  0  0  0  0  0  0  0  0
   30.3435    7.1399  -11.5108 H   0  0  0  0  0  0  0  0  0  0  0  0
   26.4120    6.2242   -9.5854 H   0  0  0  0  0  0  0  0  0  0  0  0
   26.3475    9.7950  -10.4756 H   0  0  0  0  0  0  0  0  0  0  0  0
   29.9387   11.7493  -13.4831 H   0  0  0  0  0  0  0  0  0  0  0  0
   27.6314   11.5679  -12.1104 H   0  0  0  0  0  0  0  0  0  0  0  0
   25.3920    5.8896   -7.4573 H   0  0  0  0  0  0  0  0  0  0  0  0
   25.1042   10.7464   -6.7911 H   0  0  0  0  0  0  0  0  0  0  0  0
   26.4653    9.8196   -8.6650 H   0  0  0  0  0  0  0  0  0  0  0  0
   23.6956    5.7002   -5.1390 H   0  0  0  0  0  0  0  0  0  0  0  0
   23.5061   10.0050   -2.8861 H   0  0  0  0  0  0  0  0  0  0  0  0
   24.6212   10.8451   -4.0254 H   0  0  0  0  0  0  0  0  0  0  0  0
   22.7819   11.2301   -5.5541 H   0  0  0  0  0  0  0  0  0  0  0  0
   21.6696   10.3805   -4.3783 H   0  0  0  0  0  0  0  0  0  0  0  0
   22.3346   12.1417   -2.6887 H   0  0  0  0  0  0  0  0  0  0  0  0
   23.0658   13.0491   -4.0557 H   0  0  0  0  0  0  0  0  0  0  0  0
   21.3059   12.6893   -4.0557 H   0  0  0  0  0  0  0  0  0  0  0  0
 11  4  1  0
 11 16  2  0
 11 12  1  0
 12 13  1  0
 13 14  1  0
 13 17  2  0
 14 15  2  0
 14 19  1  0
 15 16  1  0
 17 18  1  0
 18 19  2  0
 19 20  1  0
  4  1  1  0
  1  7  1  0
  1  2  2  0
  2  3  1  0
  3  5  1  0
  5  8  2  0
  5  6  1  0
  6 10  1  0
  6  7  2  0
  8  9  1  0
  9 10  2  0
 20 21  1  0
 21 22  1  0
  2 23  1  0
  3 24  1  0
  4 25  1  0
  7 26  1  0
  9 27  1  0
 10 28  1  0
 12 29  1  0
 15 30  1  0
 16 31  1  0
 17 32  1  0
 20 33  1  1
 20 34  1  0
 21 35  1  6
 21 36  1  0
 22 37  1  1
 22 38  1  0
 22 39  1  0
M  END
>  <Pose ID>  (314)
75

>  <Score>  (314)
-5.95413064956665

>  <smiles>  (314)
CCCc1ncc2[nH]c(Nc3c[nH]c4nccc-4c3)ccc1-2

$$$$

     RDKit          3D

 29 32  0  0  0  0  0  0  0  0999 V2000
   28.5170   11.9040  -11.4410 C   0  0  0  0  0  0  0  0  0  0  0  0
   28.2030   10.6450  -11.0160 N   0  0  0  0  0  0  0  0  0  0  0  0
   27.1460   10.3210  -10.1740 C   0  0  0  0  0  0  0  0  0  0  0  0
   27.6900   12.9380  -11.0150 C   0  0  0  0  0  0  0  0  0  0  0  0
   27.0520    9.0440   -9.9360 N   0  0  0  0  0  0  0  0  0  0  0  0
   26.5080   12.6410  -10.0830 C   0  0  0  0  0  0  0  0  0  0  0  0
   26.3010   11.3200   -9.7070 C   0  0  0  0  0  0  0  0  0  0  0  0
   27.9490   14.2440  -11.4120 C   0  0  0  0  0  0  0  0  0  0  0  0
   29.0360   14.5170  -12.2350 N   0  0  0  0  0  0  0  0  0  0  0  0
   29.8610   13.4870  -12.6620 C   0  0  0  0  0  0  0  0  0  0  0  0
   29.5890   12.1730  -12.2770 C   0  0  0  0  0  0  0  0  0  0  0  0
   26.0550    8.5730   -9.1240 C   0  0  0  0  0  0  0  0  0  0  0  0
   27.8920    7.9970  -10.4380 N   0  0  0  0  0  0  0  0  0  0  0  0
   26.2430    7.2190   -9.1160 C   0  0  0  0  0  0  0  0  0  0  0  0
   27.3790    6.9130   -9.9140 C   0  0  0  0  0  0  0  0  0  0  0  0
   30.5380   11.3150  -12.8630 C   0  0  0  0  0  0  0  0  0  0  0  0
   31.4400   12.1260  -13.6430 C   0  0  0  0  0  0  0  0  0  0  0  0
   31.0380   13.3500  -13.4470 O   0  0  0  0  0  0  0  0  0  0  0  0
   25.6040   13.7440   -9.5920 C   0  0  1  0  0  0  0  0  0  0  0  0
   25.4661   11.0642   -9.0380 H   0  0  0  0  0  0  0  0  0  0  0  0
   27.2945   15.0616  -11.0754 H   0  0  0  0  0  0  0  0  0  0  0  0
   25.2807    9.1514   -8.5988 H   0  0  0  0  0  0  0  0  0  0  0  0
   25.6191    6.4879   -8.5811 H   0  0  0  0  0  0  0  0  0  0  0  0
   27.7747    5.8986  -10.0705 H   0  0  0  0  0  0  0  0  0  0  0  0
   30.5836   10.2221  -12.7470 H   0  0  0  0  0  0  0  0  0  0  0  0
   32.2810   11.7866  -14.2655 H   0  0  0  0  0  0  0  0  0  0  0  0
   25.5982   13.7510   -8.4920 H   0  0  0  0  0  0  0  0  0  0  0  0
   25.9719   14.7120   -9.9629 H   0  0  0  0  0  0  0  0  0  0  0  0
   24.5826   13.5734   -9.9629 H   0  0  0  0  0  0  0  0  0  0  0  0
  1 11  1  0
  1  2  2  0
  1  4  1  0
  2  3  1  0
  3  5  1  0
  3  7  2  0
  4  8  1  0
  4  6  2  0
  6  7  1  0
  6 19  1  0
  8  9  2  0
  9 10  1  0
 10 18  1  0
 10 11  2  0
 11 16  1  0
 16 17  2  0
 17 18  1  0
  5 13  1  0
  5 12  1  0
 12 14  2  0
 13 15  2  0
 14 15  1  0
  7 20  1  0
  8 21  1  0
 12 22  1  0
 14 23  1  0
 15 24  1  0
 16 25  1  0
 17 26  1  0
 19 27  1  1
 19 28  1  0
 19 29  1  0
M  END
>  <Pose ID>  (315)
96

>  <Score>  (315)
-5.9487409591674805

>  <smiles>  (315)
Cc1cc(-n2cccn2)nc2c1cnc1occc12

$$$$

     RDKit          3D

 35 38  0  0  0  0  0  0  0  0999 V2000
   27.4900    7.7210   -9.7940 C   0  0  0  0  0  0  0  0  0  0  0  0
   26.7310    6.7830   -9.1090 N   0  0  0  0  0  0  0  0  0  0  0  0
   26.0330    7.1530   -7.9660 C   0  0  0  0  0  0  0  0  0  0  0  0
   25.3400    6.1560   -7.3340 C   0  0  0  0  0  0  0  0  0  0  0  0
   24.5980    6.4210   -6.1910 N   0  0  0  0  0  0  0  0  0  0  0  0
   24.5600    7.7060   -5.6690 C   0  0  0  0  0  0  0  0  0  0  0  0
   25.2660    8.7330   -6.2890 C   0  0  0  0  0  0  0  0  0  0  0  0
   26.0940    8.4640   -7.5090 C   0  0  0  0  0  0  0  0  0  0  0  0
   27.5540    9.0330   -9.3360 C   0  0  0  0  0  0  0  0  0  0  0  0
   26.8550    9.4050   -8.1940 C   0  0  0  0  0  0  0  0  0  0  0  0
   28.2570    7.6030  -10.9290 N   0  0  0  0  0  0  0  0  0  0  0  0
   28.9800    8.4490  -11.5500 C   0  0  0  0  0  0  0  0  0  0  0  0
   30.3720    8.4020  -11.7310 N   0  0  0  0  0  0  0  0  0  0  0  0
   30.6920    9.5010  -12.4220 O   0  0  0  0  0  0  0  0  0  0  0  0
   29.6550   10.2090  -12.6950 C   0  0  0  0  0  0  0  0  0  0  0  0
   28.5330    9.5540  -12.1880 C   0  0  0  0  0  0  0  0  0  0  0  0
   23.8060    7.9710   -4.5110 C   0  0  0  0  0  0  0  0  0  0  0  0
   22.7460    8.8070   -4.5490 N   0  0  0  0  0  0  0  0  0  0  0  0
   24.0300    7.2600   -3.2340 C   0  0  0  0  0  0  0  0  0  0  0  0
   23.3060    7.6200   -2.3620 C   0  0  0  0  0  0  0  0  0  0  0  0
   22.2390    8.6400   -3.2140 C   0  0  0  0  0  0  0  0  0  0  0  0
   22.1820    9.6360   -5.5710 C   0  0  1  0  0  0  0  0  0  0  0  0
   25.3714    5.1328   -7.7365 H   0  0  0  0  0  0  0  0  0  0  0  0
   25.2157    9.7526   -5.8793 H   0  0  0  0  0  0  0  0  0  0  0  0
   28.1578    9.7759   -9.8777 H   0  0  0  0  0  0  0  0  0  0  0  0
   26.9036   10.4427   -7.8323 H   0  0  0  0  0  0  0  0  0  0  0  0
   28.2451    6.6642  -11.3525 H   0  0  0  0  0  0  0  0  0  0  0  0
   29.6527   11.1670  -13.2356 H   0  0  0  0  0  0  0  0  0  0  0  0
   27.4856    9.8748  -12.2880 H   0  0  0  0  0  0  0  0  0  0  0  0
   24.7906    6.4761   -3.1036 H   0  0  0  0  0  0  0  0  0  0  0  0
   23.3209    7.3635   -1.2924 H   0  0  0  0  0  0  0  0  0  0  0  0
   21.3206    9.0926   -2.8118 H   0  0  0  0  0  0  0  0  0  0  0  0
   21.6211   10.4604   -5.1064 H   0  0  0  0  0  0  0  0  0  0  0  0
   22.9884   10.0475   -6.1959 H   0  0  0  0  0  0  0  0  0  0  0  0
   21.5032    9.0371   -6.1959 H   0  0  0  0  0  0  0  0  0  0  0  0
  1 11  1  0
  1  9  1  0
  1  2  2  0
  2  3  1  0
  3  8  2  0
  3  4  1  0
  4  5  2  0
  5  6  1  0
  6  7  2  0
  6 17  1  0
  7  8  1  0
  8 10  1  0
  9 10  2  0
 11 12  1  0
 12 16  1  0
 12 13  2  0
 13 14  1  0
 14 15  1  0
 15 16  2  0
 17 18  1  0
 17 19  2  0
 18 22  1  0
 18 21  1  0
 19 20  1  0
 20 21  2  0
  4 23  1  0
  7 24  1  0
  9 25  1  0
 10 26  1  0
 11 27  1  0
 15 28  1  0
 16 29  1  0
 19 30  1  0
 20 31  1  0
 21 32  1  0
 22 33  1  1
 22 34  1  0
 22 35  1  0
M  END
>  <Pose ID>  (316)
26

>  <Score>  (316)
-5.944746494293213

>  <smiles>  (316)
Cn1cccc1-c1cc2ccc(Nc3ccon3)nc2cn1

$$$$

     RDKit          3D

 35 38  0  0  0  0  0  0  0  0999 V2000
   27.3250    7.9120  -10.2120 C   0  0  0  0  0  0  0  0  0  0  0  0
   28.4260    7.1530  -10.5790 C   0  0  0  0  0  0  0  0  0  0  0  0
   29.4190    7.7110  -11.3730 N   0  0  0  0  0  0  0  0  0  0  0  0
   26.5120    7.1700   -9.4440 N   0  0  0  0  0  0  0  0  0  0  0  0
   29.3130    9.0310  -11.8000 C   0  0  0  0  0  0  0  0  0  0  0  0
   28.2090    9.7890  -11.4310 C   0  0  0  0  0  0  0  0  0  0  0  0
   27.2150    9.2330  -10.6380 C   0  0  0  0  0  0  0  0  0  0  0  0
   30.1300    9.7790  -12.5580 N   0  0  0  0  0  0  0  0  0  0  0  0
   29.6270   10.9620  -12.7010 C   0  0  0  0  0  0  0  0  0  0  0  0
   28.4450   10.9290  -11.9710 C   0  0  0  0  0  0  0  0  0  0  0  0
   25.9290    7.6490   -8.2330 C   0  0  0  0  0  0  0  0  0  0  0  0
   25.2750    6.7390   -7.4100 N   0  0  0  0  0  0  0  0  0  0  0  0
   24.5920    7.1860   -6.2840 C   0  0  0  0  0  0  0  0  0  0  0  0
   24.5640    8.5420   -5.9830 C   0  0  0  0  0  0  0  0  0  0  0  0
   25.2170    9.4530   -6.8080 C   0  0  0  0  0  0  0  0  0  0  0  0
   25.9230    8.9990   -7.9160 C   0  0  0  0  0  0  0  0  0  0  0  0
   24.0090    6.3700   -5.5470 O   0  0  0  0  0  0  0  0  0  0  0  0
   29.9970   12.1230  -13.3700 C   0  0  0  0  0  0  0  0  0  0  0  0
   29.1860   13.2490  -13.3100 C   0  0  0  0  0  0  0  0  0  0  0  0
   28.0030   13.2160  -12.5800 N   0  0  0  0  0  0  0  0  0  0  0  0
   27.6000   12.0700  -11.9240 C   0  0  0  0  0  0  0  0  0  0  0  0
   23.8250    9.0270   -4.7610 C   0  0  1  0  0  0  0  0  0  0  0  0
   28.5126    6.1097  -10.2414 H   0  0  0  0  0  0  0  0  0  0  0  0
   30.2360    7.1465  -11.6465 H   0  0  0  0  0  0  0  0  0  0  0  0
   26.2985    6.2079   -9.7434 H   0  0  0  0  0  0  0  0  0  0  0  0
   26.3417    9.8349  -10.3465 H   0  0  0  0  0  0  0  0  0  0  0  0
   25.2963    5.7339   -7.6342 H   0  0  0  0  0  0  0  0  0  0  0  0
   25.1746   10.5291   -6.5839 H   0  0  0  0  0  0  0  0  0  0  0  0
   26.4782    9.7123   -8.5428 H   0  0  0  0  0  0  0  0  0  0  0  0
   30.9329   12.1500  -13.9474 H   0  0  0  0  0  0  0  0  0  0  0  0
   29.4796   14.1670  -13.8401 H   0  0  0  0  0  0  0  0  0  0  0  0
   26.6460   12.0411  -11.3772 H   0  0  0  0  0  0  0  0  0  0  0  0
   24.3479    8.6839   -3.8561 H   0  0  0  0  0  0  0  0  0  0  0  0
   23.7869   10.1263   -4.7678 H   0  0  0  0  0  0  0  0  0  0  0  0
   22.8013    8.6246   -4.7678 H   0  0  0  0  0  0  0  0  0  0  0  0
  1  7  1  0
  1  2  2  0
  1  4  1  0
  2  3  1  0
  3  5  1  0
  5  8  2  0
  5  6  1  0
  6 10  1  0
  6  7  2  0
  8  9  1  0
  9 18  1  0
  9 10  2  0
 10 21  1  0
 18 19  2  0
 19 20  1  0
 20 21  2  0
  4 11  1  0
 11 16  2  0
 11 12  1  0
 12 13  1  0
 13 14  1  0
 13 17  2  0
 14 15  2  0
 14 22  1  0
 15 16  1  0
  2 23  1  0
  3 24  1  0
  4 25  1  0
  7 26  1  0
 12 27  1  0
 15 28  1  0
 16 29  1  0
 18 30  1  0
 19 31  1  0
 21 32  1  0
 22 33  1  1
 22 34  1  0
 22 35  1  0
M  END
>  <Pose ID>  (317)
107

>  <Score>  (317)
-5.943457126617432

>  <smiles>  (317)
Cc1ccc(Nc2c[nH]c3nc4ccncc4c-3c2)[nH]c1=O

$$$$

     RDKit          3D

 35 38  0  0  0  0  0  0  0  0999 V2000
   26.8520    8.7930  -10.4510 C   0  0  0  0  0  0  0  0  0  0  0  0
   27.5340    7.5870  -10.3190 C   0  0  0  0  0  0  0  0  0  0  0  0
   28.7850    7.4300  -10.9040 N   0  0  0  0  0  0  0  0  0  0  0  0
   25.6290    9.2730  -10.0020 N   0  0  0  0  0  0  0  0  0  0  0  0
   29.3550    8.4740  -11.6220 C   0  0  0  0  0  0  0  0  0  0  0  0
   28.6740    9.6790  -11.7550 C   0  0  0  0  0  0  0  0  0  0  0  0
   27.4220    9.8360  -11.1700 C   0  0  0  0  0  0  0  0  0  0  0  0
   30.5320    8.5620  -12.2670 N   0  0  0  0  0  0  0  0  0  0  0  0
   30.6380    9.8120  -12.8310 C   0  0  0  0  0  0  0  0  0  0  0  0
   29.4070   10.3770  -12.4320 C   0  0  0  0  0  0  0  0  0  0  0  0
   25.2820    9.5440   -8.5880 C   0  0  0  0  0  0  0  0  0  0  0  0
   24.0780   10.0080   -8.0850 N   0  0  0  0  0  0  0  0  0  0  0  0
   23.9320   10.2530   -6.7240 C   0  0  0  0  0  0  0  0  0  0  0  0
   24.9930    9.9990   -5.8620 C   0  0  0  0  0  0  0  0  0  0  0  0
   26.1970    9.5190   -6.3620 C   0  0  0  0  0  0  0  0  0  0  0  0
   26.3410    9.2910   -7.7240 N   0  0  0  0  0  0  0  0  0  0  0  0
   27.1450    9.2950   -5.5880 O   0  0  0  0  0  0  0  0  0  0  0  0
   22.8410   10.7500   -5.9890 C   0  0  0  0  0  0  0  0  0  0  0  0
   23.2280   10.7660   -4.6710 C   0  0  0  0  0  0  0  0  0  0  0  0
   24.4630   10.3700   -4.6120 O   0  0  0  0  0  0  0  0  0  0  0  0
   22.3700   11.1720   -3.4980 C   0  0  1  0  0  0  0  0  0  0  0  0
   29.0180   11.7800  -12.8260 C   0  0  1  0  0  0  0  0  0  0  0  0
   27.0834    6.7589   -9.7523 H   0  0  0  0  0  0  0  0  0  0  0  0
   29.2904    6.5380  -10.8050 H   0  0  0  0  0  0  0  0  0  0  0  0
   24.9038    9.4555  -10.7102 H   0  0  0  0  0  0  0  0  0  0  0  0
   26.8819   10.7883  -11.2769 H   0  0  0  0  0  0  0  0  0  0  0  0
   31.4533   10.2491  -13.4261 H   0  0  0  0  0  0  0  0  0  0  0  0
   27.2333    8.9341   -8.0945 H   0  0  0  0  0  0  0  0  0  0  0  0
   21.8668   11.0648   -6.3913 H   0  0  0  0  0  0  0  0  0  0  0  0
   22.8902   10.9258   -2.5606 H   0  0  0  0  0  0  0  0  0  0  0  0
   22.1813   12.2549   -3.5392 H   0  0  0  0  0  0  0  0  0  0  0  0
   21.4130   10.6312   -3.5392 H   0  0  0  0  0  0  0  0  0  0  0  0
   28.8511   12.3821  -11.9207 H   0  0  0  0  0  0  0  0  0  0  0  0
   29.8251   12.2305  -13.4223 H   0  0  0  0  0  0  0  0  0  0  0  0
   28.0941   11.7506  -13.4223 H   0  0  0  0  0  0  0  0  0  0  0  0
  4  1  1  0
  4 11  1  0
 11 12  2  0
 11 16  1  0
 12 13  1  0
 13 18  1  0
 13 14  2  0
 14 15  1  0
 14 20  1  0
 15 16  1  0
 15 17  2  0
 18 19  2  0
 19 20  1  0
 19 21  1  0
  1  7  1  0
  1  2  2  0
  2  3  1  0
  3  5  1  0
  5  8  2  0
  5  6  1  0
  6 10  1  0
  6  7  2  0
  8  9  1  0
  9 10  2  0
 10 22  1  0
  2 23  1  0
  3 24  1  0
  4 25  1  0
  7 26  1  0
  9 27  1  0
 16 28  1  0
 18 29  1  0
 21 30  1  1
 21 31  1  0
 21 32  1  0
 22 33  1  1
 22 34  1  0
 22 35  1  0
M  END
>  <Pose ID>  (318)
20

>  <Score>  (318)
-5.929001331329346

>  <smiles>  (318)
Cc1cc2nc(Nc3c[nH]c4ncc(C)c-4c3)[nH]c(=O)c2o1

$$$$

     RDKit          3D

 33 36  0  0  0  0  0  0  0  0999 V2000
   27.2730    7.9250  -10.1930 C   0  0  0  0  0  0  0  0  0  0  0  0
   28.3530    7.1560  -10.5920 C   0  0  0  0  0  0  0  0  0  0  0  0
   29.3380    7.7060  -11.4010 N   0  0  0  0  0  0  0  0  0  0  0  0
   26.4650    7.1860   -9.4150 N   0  0  0  0  0  0  0  0  0  0  0  0
   29.2430    9.0320  -11.8070 C   0  0  0  0  0  0  0  0  0  0  0  0
   28.1600    9.8040  -11.4060 C   0  0  0  0  0  0  0  0  0  0  0  0
   27.1750    9.2540  -10.5980 C   0  0  0  0  0  0  0  0  0  0  0  0
   30.0570    9.7790  -12.5750 N   0  0  0  0  0  0  0  0  0  0  0  0
   29.5210   11.0410  -12.6890 C   0  0  0  0  0  0  0  0  0  0  0  0
   28.3490   10.8930  -11.9200 C   0  0  0  0  0  0  0  0  0  0  0  0
   25.9160    7.6580   -8.1860 C   0  0  0  0  0  0  0  0  0  0  0  0
   25.2660    6.7490   -7.3600 N   0  0  0  0  0  0  0  0  0  0  0  0
   24.6160    7.1910   -6.2130 C   0  0  0  0  0  0  0  0  0  0  0  0
   24.6150    8.5440   -5.8940 C   0  0  0  0  0  0  0  0  0  0  0  0
   25.2650    9.4540   -6.7210 C   0  0  0  0  0  0  0  0  0  0  0  0
   25.9380    9.0050   -7.8510 C   0  0  0  0  0  0  0  0  0  0  0  0
   24.0330    6.3760   -5.4750 O   0  0  0  0  0  0  0  0  0  0  0  0
   25.3860   10.8520   -6.6360 C   0  0  0  0  0  0  0  0  0  0  0  0
   24.8270   11.7540   -7.4810 O   0  0  0  0  0  0  0  0  0  0  0  0
   25.1710   13.0030   -7.0650 N   0  0  0  0  0  0  0  0  0  0  0  0
   25.9320   12.8750   -5.9570 C   0  0  0  0  0  0  0  0  0  0  0  0
   26.1070   11.5340   -5.7030 C   0  0  0  0  0  0  0  0  0  0  0  0
   28.4307    6.1078  -10.2675 H   0  0  0  0  0  0  0  0  0  0  0  0
   30.1389    7.1317  -11.7003 H   0  0  0  0  0  0  0  0  0  0  0  0
   26.2302    6.2310   -9.7211 H   0  0  0  0  0  0  0  0  0  0  0  0
   26.3189    9.8661  -10.2781 H   0  0  0  0  0  0  0  0  0  0  0  0
   29.9011   11.9204  -13.2296 H   0  0  0  0  0  0  0  0  0  0  0  0
   27.6378   11.7220  -11.7897 H   0  0  0  0  0  0  0  0  0  0  0  0
   25.2657    5.7468   -7.5976 H   0  0  0  0  0  0  0  0  0  0  0  0
   24.1001    8.8950   -4.9875 H   0  0  0  0  0  0  0  0  0  0  0  0
   26.4892    9.7184   -8.4812 H   0  0  0  0  0  0  0  0  0  0  0  0
   26.3423   13.7021   -5.3591 H   0  0  0  0  0  0  0  0  0  0  0  0
   26.7148   11.0953   -4.8980 H   0  0  0  0  0  0  0  0  0  0  0  0
 11  4  1  0
 11 16  2  0
 11 12  1  0
 12 13  1  0
 13 14  1  0
 13 17  2  0
 14 15  2  0
 15 16  1  0
 15 18  1  0
 18 19  1  0
 18 22  2  0
 19 20  1  0
 20 21  2  0
 21 22  1  0
  4  1  1  0
  1  7  1  0
  1  2  2  0
  2  3  1  0
  3  5  1  0
  5  8  2  0
  5  6  1  0
  6 10  1  0
  6  7  2  0
  8  9  1  0
  9 10  2  0
  2 23  1  0
  3 24  1  0
  4 25  1  0
  7 26  1  0
  9 27  1  0
 10 28  1  0
 12 29  1  0
 14 30  1  0
 16 31  1  0
 21 32  1  0
 22 33  1  0
M  END
>  <Pose ID>  (319)
131

>  <Score>  (319)
-5.927992820739746

>  <smiles>  (319)
O=c1cc(-c2ccno2)cc(Nc2c[nH]c3nccc-3c2)[nH]1

$$$$

     RDKit          3D

 38 41  0  0  0  0  0  0  0  0999 V2000
   27.3070    7.8780  -10.1740 C   0  0  0  0  0  0  0  0  0  0  0  0
   28.4340    7.1390  -10.4990 C   0  0  0  0  0  0  0  0  0  0  0  0
   29.4230    7.6960  -11.2990 N   0  0  0  0  0  0  0  0  0  0  0  0
   26.5040    7.1410   -9.3910 N   0  0  0  0  0  0  0  0  0  0  0  0
   29.2870    8.9960  -11.7710 C   0  0  0  0  0  0  0  0  0  0  0  0
   28.1580    9.7360  -11.4430 C   0  0  0  0  0  0  0  0  0  0  0  0
   27.1670    9.1820  -10.6450 C   0  0  0  0  0  0  0  0  0  0  0  0
   30.0950    9.7420  -12.5430 N   0  0  0  0  0  0  0  0  0  0  0  0
   29.5530   10.9130  -12.7310 C   0  0  0  0  0  0  0  0  0  0  0  0
   28.3460   10.8500  -12.0490 C   0  0  0  0  0  0  0  0  0  0  0  0
   25.8900    7.6440   -8.2040 C   0  0  0  0  0  0  0  0  0  0  0  0
   25.2480    6.7460   -7.3580 N   0  0  0  0  0  0  0  0  0  0  0  0
   24.5390    7.2120   -6.2600 C   0  0  0  0  0  0  0  0  0  0  0  0
   24.4710    8.5770   -6.0050 C   0  0  0  0  0  0  0  0  0  0  0  0
   25.1090    9.4760   -6.8510 C   0  0  0  0  0  0  0  0  0  0  0  0
   25.8450    9.0050   -7.9340 C   0  0  0  0  0  0  0  0  0  0  0  0
   23.9660    6.4060   -5.5030 O   0  0  0  0  0  0  0  0  0  0  0  0
   29.9060   12.0690  -13.4180 C   0  0  0  0  0  0  0  0  0  0  0  0
   29.0480   13.1630  -13.4210 C   0  0  0  0  0  0  0  0  0  0  0  0
   27.8390   13.1000  -12.7380 C   0  0  0  0  0  0  0  0  0  0  0  0
   27.4890   11.9450  -12.0520 N   0  0  0  0  0  0  0  0  0  0  0  0
   25.0060   10.9590   -6.5950 C   0  0  1  0  0  0  0  0  0  0  0  0
   26.3260   11.3970   -6.0080 C   0  0  1  0  0  0  0  0  0  0  0  0
   28.5448    6.1112  -10.1231 H   0  0  0  0  0  0  0  0  0  0  0  0
   30.2584    7.1450  -11.5428 H   0  0  0  0  0  0  0  0  0  0  0  0
   26.3215    6.1636   -9.6597 H   0  0  0  0  0  0  0  0  0  0  0  0
   26.2744    9.7700  -10.3852 H   0  0  0  0  0  0  0  0  0  0  0  0
   25.2988    5.7347   -7.5466 H   0  0  0  0  0  0  0  0  0  0  0  0
   23.9116    8.9457   -5.1326 H   0  0  0  0  0  0  0  0  0  0  0  0
   26.3913    9.7113   -8.5764 H   0  0  0  0  0  0  0  0  0  0  0  0
   30.8628   12.1180  -13.9584 H   0  0  0  0  0  0  0  0  0  0  0  0
   29.3259   14.0784  -13.9639 H   0  0  0  0  0  0  0  0  0  0  0  0
   27.1597   13.9652  -12.7411 H   0  0  0  0  0  0  0  0  0  0  0  0
   24.8158   11.4930   -7.5377 H   0  0  0  0  0  0  0  0  0  0  0  0
   24.1767   11.1826   -5.9078 H   0  0  0  0  0  0  0  0  0  0  0  0
   26.2639   11.3764   -4.9099 H   0  0  0  0  0  0  0  0  0  0  0  0
   27.1209   10.7144   -6.3432 H   0  0  0  0  0  0  0  0  0  0  0  0
   26.5551   12.4193   -6.3432 H   0  0  0  0  0  0  0  0  0  0  0  0
  1  7  1  0
  1  2  2  0
  1  4  1  0
  2  3  1  0
  3  5  1  0
  5  8  2  0
  5  6  1  0
  6 10  1  0
  6  7  2  0
  8  9  1  0
  9 18  1  0
  9 10  2  0
 10 21  1  0
 18 19  2  0
 19 20  1  0
 20 21  2  0
  4 11  1  0
 11 16  2  0
 11 12  1  0
 12 13  1  0
 13 14  1  0
 13 17  2  0
 14 15  2  0
 15 16  1  0
 15 22  1  0
 22 23  1  0
  2 24  1  0
  3 25  1  0
  4 26  1  0
  7 27  1  0
 12 28  1  0
 14 29  1  0
 16 30  1  0
 18 31  1  0
 19 32  1  0
 20 33  1  0
 22 34  1  6
 22 35  1  0
 23 36  1  1
 23 37  1  0
 23 38  1  0
M  END
>  <Pose ID>  (320)
100

>  <Score>  (320)
-5.925891876220703

>  <smiles>  (320)
CCc1cc(Nc2c[nH]c3nc4cccnc4c-3c2)[nH]c(=O)c1

$$$$

     RDKit          3D

 37 40  0  0  0  0  0  0  0  0999 V2000
   27.3460    7.9490  -10.1580 C   0  0  0  0  0  0  0  0  0  0  0  0
   28.4520    7.1810  -10.4870 C   0  0  0  0  0  0  0  0  0  0  0  0
   29.4370    7.7010  -11.3180 N   0  0  0  0  0  0  0  0  0  0  0  0
   26.5450    7.2430   -9.3440 N   0  0  0  0  0  0  0  0  0  0  0  0
   29.3130    8.9910  -11.8190 C   0  0  0  0  0  0  0  0  0  0  0  0
   28.2050    9.7610  -11.4880 C   0  0  0  0  0  0  0  0  0  0  0  0
   27.2210    9.2420  -10.6590 C   0  0  0  0  0  0  0  0  0  0  0  0
   30.1210    9.7020  -12.6260 N   0  0  0  0  0  0  0  0  0  0  0  0
   29.5570   10.9380  -12.8360 C   0  0  0  0  0  0  0  0  0  0  0  0
   28.3750   10.8140  -12.0770 C   0  0  0  0  0  0  0  0  0  0  0  0
   25.9630    7.7880   -8.1590 C   0  0  0  0  0  0  0  0  0  0  0  0
   25.3240    6.9230   -7.2800 N   0  0  0  0  0  0  0  0  0  0  0  0
   24.6430    7.4270   -6.1770 C   0  0  0  0  0  0  0  0  0  0  0  0
   24.6030    8.7980   -5.9550 C   0  0  0  0  0  0  0  0  0  0  0  0
   25.2430    9.6650   -6.8340 C   0  0  0  0  0  0  0  0  0  0  0  0
   25.9490    9.1550   -7.9200 C   0  0  0  0  0  0  0  0  0  0  0  0
   23.9330    6.7780   -5.1640 C   0  0  0  0  0  0  0  0  0  0  0  0
   23.5940    7.7620   -4.2610 N   0  0  0  0  0  0  0  0  0  0  0  0
   23.9810    8.9460   -4.6060 C   0  0  0  0  0  0  0  0  0  0  0  0
   23.9390   10.1960   -4.0320 O   0  0  0  0  0  0  0  0  0  0  0  0
   22.5970   10.6430   -4.0340 C   0  0  1  0  0  0  0  0  0  0  0  0
   25.1730   11.1560   -6.6100 C   0  0  1  0  0  0  0  0  0  0  0  0
   28.5500    6.1597  -10.0902 H   0  0  0  0  0  0  0  0  0  0  0  0
   30.2588    7.1302  -11.5625 H   0  0  0  0  0  0  0  0  0  0  0  0
   26.3407    6.2627   -9.5853 H   0  0  0  0  0  0  0  0  0  0  0  0
   26.3432    9.8513  -10.3979 H   0  0  0  0  0  0  0  0  0  0  0  0
   29.9252   11.7872  -13.4305 H   0  0  0  0  0  0  0  0  0  0  0  0
   27.6401   11.6305  -12.0193 H   0  0  0  0  0  0  0  0  0  0  0  0
   25.3545    5.9068   -7.4453 H   0  0  0  0  0  0  0  0  0  0  0  0
   26.4959    9.8357   -8.5889 H   0  0  0  0  0  0  0  0  0  0  0  0
   23.6945    5.7060   -5.1005 H   0  0  0  0  0  0  0  0  0  0  0  0
   22.2477   10.7593   -2.9974 H   0  0  0  0  0  0  0  0  0  0  0  0
   22.5336   11.6108   -4.5531 H   0  0  0  0  0  0  0  0  0  0  0  0
   21.9660    9.9065   -4.5531 H   0  0  0  0  0  0  0  0  0  0  0  0
   25.1632   11.3645   -5.5300 H   0  0  0  0  0  0  0  0  0  0  0  0
   26.0495   11.6372   -7.0684 H   0  0  0  0  0  0  0  0  0  0  0  0
   24.2552   11.5530   -7.0684 H   0  0  0  0  0  0  0  0  0  0  0  0
 11  4  1  0
 11 16  2  0
 11 12  1  0
 12 13  1  0
 13 14  1  0
 13 17  2  0
 14 15  2  0
 14 19  1  0
 15 16  1  0
 15 22  1  0
 17 18  1  0
 18 19  2  0
 19 20  1  0
  4  1  1  0
  1  7  1  0
  1  2  2  0
  2  3  1  0
  3  5  1  0
  5  8  2  0
  5  6  1  0
  6 10  1  0
  6  7  2  0
  8  9  1  0
  9 10  2  0
 20 21  1  0
  2 23  1  0
  3 24  1  0
  4 25  1  0
  7 26  1  0
  9 27  1  0
 10 28  1  0
 12 29  1  0
 16 30  1  0
 17 31  1  0
 21 32  1  1
 21 33  1  0
 21 34  1  0
 22 35  1  1
 22 36  1  0
 22 37  1  0
M  END
>  <Pose ID>  (321)
50

>  <Score>  (321)
-5.923934459686279

>  <smiles>  (321)
COc1ncc2[nH]c(Nc3c[nH]c4nccc-4c3)cc(C)c1-2

$$$$

     RDKit          3D

 38 41  0  0  0  0  0  0  0  0999 V2000
   27.5800    7.7200  -10.1430 C   0  0  0  0  0  0  0  0  0  0  0  0
   28.3110    7.0350  -11.1030 C   0  0  0  0  0  0  0  0  0  0  0  0
   29.1140    7.7350  -11.9960 N   0  0  0  0  0  0  0  0  0  0  0  0
   29.1860    9.1210  -11.9270 C   0  0  0  0  0  0  0  0  0  0  0  0
   26.7950    6.8400   -9.2800 O   0  0  0  0  0  0  0  0  0  0  0  0
   28.4500    9.8090  -10.9650 C   0  0  0  0  0  0  0  0  0  0  0  0
   27.6500    9.1050  -10.0730 C   0  0  0  0  0  0  0  0  0  0  0  0
   29.8780   10.0080  -12.6680 N   0  0  0  0  0  0  0  0  0  0  0  0
   29.6080   11.2760  -12.2060 C   0  0  0  0  0  0  0  0  0  0  0  0
   28.7060   10.9810  -11.1600 C   0  0  0  0  0  0  0  0  0  0  0  0
   26.2160    7.2390   -8.0710 C   0  0  0  0  0  0  0  0  0  0  0  0
   25.5340    8.4470   -8.0680 N   0  0  0  0  0  0  0  0  0  0  0  0
   25.0690    8.6680   -6.7840 N   0  0  0  0  0  0  0  0  0  0  0  0
   25.4320    7.6310   -6.0160 C   0  0  0  0  0  0  0  0  0  0  0  0
   26.1040    6.7630   -6.7770 C   0  0  0  0  0  0  0  0  0  0  0  0
   24.3660    9.7210   -6.4060 C   0  0  0  0  0  0  0  0  0  0  0  0
   24.8720   11.0090   -6.5330 C   0  0  0  0  0  0  0  0  0  0  0  0
   23.0810    9.5240   -5.9140 C   0  0  0  0  0  0  0  0  0  0  0  0
   22.3010   10.6160   -5.5510 C   0  0  0  0  0  0  0  0  0  0  0  0
   22.8060   11.9040   -5.6790 C   0  0  0  0  0  0  0  0  0  0  0  0
   24.0910   12.1010   -6.1700 N   0  0  0  0  0  0  0  0  0  0  0  0
   26.2670   11.2230   -7.0640 C   0  0  1  0  0  0  0  0  0  0  0  0
   22.5330    8.1250   -5.7740 C   0  0  1  0  0  0  0  0  0  0  0  0
   28.2551    5.9378  -11.1574 H   0  0  0  0  0  0  0  0  0  0  0  0
   29.6558    7.2262  -12.7091 H   0  0  0  0  0  0  0  0  0  0  0  0
   27.0711    9.6460   -9.3100 H   0  0  0  0  0  0  0  0  0  0  0  0
   29.9884   12.2477  -12.5541 H   0  0  0  0  0  0  0  0  0  0  0  0
   28.2551   11.7768  -10.5489 H   0  0  0  0  0  0  0  0  0  0  0  0
   25.2141    7.5149   -4.9441 H   0  0  0  0  0  0  0  0  0  0  0  0
   26.5113    5.8040   -6.4242 H   0  0  0  0  0  0  0  0  0  0  0  0
   21.2838   10.4603   -5.1624 H   0  0  0  0  0  0  0  0  0  0  0  0
   22.1886   12.7679   -5.3917 H   0  0  0  0  0  0  0  0  0  0  0  0
   26.9672   11.3304   -6.2225 H   0  0  0  0  0  0  0  0  0  0  0  0
   26.5619   10.3596   -7.6785 H   0  0  0  0  0  0  0  0  0  0  0  0
   26.2895   12.1351   -7.6785 H   0  0  0  0  0  0  0  0  0  0  0  0
   22.4349    7.8747   -4.7074 H   0  0  0  0  0  0  0  0  0  0  0  0
   21.5460    8.0678   -6.2563 H   0  0  0  0  0  0  0  0  0  0  0  0
   23.2186    7.4127   -6.2563 H   0  0  0  0  0  0  0  0  0  0  0  0
 11  5  1  0
 11 12  2  0
 11 15  1  0
 12 13  1  0
 13 16  1  0
 13 14  1  0
 14 15  2  0
 16 17  2  0
 16 18  1  0
 17 22  1  0
 17 21  1  0
 18 23  1  0
 18 19  2  0
 19 20  1  0
 20 21  2  0
  5  1  1  0
  1  2  2  0
  1  7  1  0
  2  3  1  0
  3  4  1  0
  4  8  2  0
  4  6  1  0
  6 10  1  0
  6  7  2  0
  8  9  1  0
  9 10  2  0
  2 24  1  0
  3 25  1  0
  7 26  1  0
  9 27  1  0
 10 28  1  0
 14 29  1  0
 15 30  1  0
 19 31  1  0
 20 32  1  0
 22 33  1  1
 22 34  1  0
 22 35  1  0
 23 36  1  1
 23 37  1  0
 23 38  1  0
M  END
>  <Pose ID>  (322)
251

>  <Score>  (322)
-5.9238152503967285

>  <smiles>  (322)
Cc1ccnc(C)c1-n1ccc(Oc2c[nH]c3nccc-3c2)n1

$$$$

     RDKit          3D

 37 40  0  0  0  0  0  0  0  0999 V2000
   27.9180    7.8330  -10.3080 C   0  0  0  0  0  0  0  0  0  0  0  0
   28.8960    7.1200  -10.9910 C   0  0  0  0  0  0  0  0  0  0  0  0
   29.7480    7.7770  -11.8690 N   0  0  0  0  0  0  0  0  0  0  0  0
   29.6260    9.1480  -12.0650 C   0  0  0  0  0  0  0  0  0  0  0  0
   27.1120    7.0000   -9.4200 O   0  0  0  0  0  0  0  0  0  0  0  0
   28.6460    9.8630  -11.3820 C   0  0  0  0  0  0  0  0  0  0  0  0
   27.7950    9.2030  -10.5030 C   0  0  0  0  0  0  0  0  0  0  0  0
   30.3200    9.9950  -12.8500 N   0  0  0  0  0  0  0  0  0  0  0  0
   29.8070   11.2630  -12.6970 C   0  0  0  0  0  0  0  0  0  0  0  0
   28.7770   11.0110  -11.7640 C   0  0  0  0  0  0  0  0  0  0  0  0
   26.2740    7.5040   -8.4180 C   0  0  0  0  0  0  0  0  0  0  0  0
   25.4540    8.5670   -8.7560 N   0  0  0  0  0  0  0  0  0  0  0  0
   24.7690    8.9070   -7.6560 N   0  0  0  0  0  0  0  0  0  0  0  0
   25.0840    8.0830   -6.5840 C   0  0  0  0  0  0  0  0  0  0  0  0
   25.9940    7.2440   -7.0890 C   0  0  0  0  0  0  0  0  0  0  0  0
   23.8260    9.9170   -7.5030 C   0  0  0  0  0  0  0  0  0  0  0  0
   23.2000   10.1030   -6.2760 N   0  0  0  0  0  0  0  0  0  0  0  0
   23.5160    9.2780   -5.2020 C   0  0  0  0  0  0  0  0  0  0  0  0
   24.4580    8.2690   -5.3560 C   0  0  0  0  0  0  0  0  0  0  0  0
   30.2280   12.5590  -13.3440 C   0  0  1  0  0  0  0  0  0  0  0  0
   22.8350    9.4780   -3.8710 C   0  0  1  0  0  0  0  0  0  0  0  0
   27.8800   12.1160  -11.2640 C   0  0  1  0  0  0  0  0  0  0  0  0
   28.9952    6.0355  -10.8362 H   0  0  0  0  0  0  0  0  0  0  0  0
   30.4717    7.2476  -12.3759 H   0  0  0  0  0  0  0  0  0  0  0  0
   27.0221    9.7670   -9.9604 H   0  0  0  0  0  0  0  0  0  0  0  0
   26.4675    6.4364   -6.5115 H   0  0  0  0  0  0  0  0  0  0  0  0
   23.5753   10.5689   -8.3529 H   0  0  0  0  0  0  0  0  0  0  0  0
   24.7090    7.6168   -4.5065 H   0  0  0  0  0  0  0  0  0  0  0  0
   30.4678   13.2971  -12.5644 H   0  0  0  0  0  0  0  0  0  0  0  0
   31.1158   12.3850  -13.9697 H   0  0  0  0  0  0  0  0  0  0  0  0
   29.4074   12.9400  -13.9697 H   0  0  0  0  0  0  0  0  0  0  0  0
   23.5475    9.2688   -3.0595 H   0  0  0  0  0  0  0  0  0  0  0  0
   22.4835   10.5173   -3.7915 H   0  0  0  0  0  0  0  0  0  0  0  0
   21.9774    8.7938   -3.7915 H   0  0  0  0  0  0  0  0  0  0  0  0
   27.8786   12.1177  -10.1640 H   0  0  0  0  0  0  0  0  0  0  0  0
   28.2510   13.0841  -11.6317 H   0  0  0  0  0  0  0  0  0  0  0  0
   26.8563   11.9520  -11.6317 H   0  0  0  0  0  0  0  0  0  0  0  0
  1  2  2  0
  1  7  1  0
  1  5  1  0
  2  3  1  0
  3  4  1  0
  4  8  2  0
  4  6  1  0
  6 10  1  0
  6  7  2  0
  8  9  1  0
  9 20  1  0
  9 10  2  0
 10 22  1  0
  5 11  1  0
 11 12  2  0
 11 15  1  0
 12 13  1  0
 13 16  1  0
 13 14  1  0
 14 15  2  0
 14 19  1  0
 16 17  2  0
 17 18  1  0
 18 19  2  0
 18 21  1  0
  2 23  1  0
  3 24  1  0
  7 25  1  0
 15 26  1  0
 16 27  1  0
 19 28  1  0
 20 29  1  1
 20 30  1  0
 20 31  1  0
 21 32  1  1
 21 33  1  0
 21 34  1  0
 22 35  1  1
 22 36  1  0
 22 37  1  0
M  END
>  <Pose ID>  (323)
291

>  <Score>  (323)
-5.920695781707764

>  <smiles>  (323)
Cc1cc2cc(Oc3c[nH]c4nc(C)c(C)c-4c3)nn2cn1

$$$$

     RDKit          3D

 35 38  0  0  0  0  0  0  0  0999 V2000
   27.9220    7.9270  -10.3680 C   0  0  0  0  0  0  0  0  0  0  0  0
   28.7800    7.1290  -11.1140 C   0  0  0  0  0  0  0  0  0  0  0  0
   29.6770    7.7120  -12.0000 N   0  0  0  0  0  0  0  0  0  0  0  0
   29.7180    9.0940  -12.1400 C   0  0  0  0  0  0  0  0  0  0  0  0
   27.0500    7.1640   -9.4800 O   0  0  0  0  0  0  0  0  0  0  0  0
   28.8580    9.8930  -11.3950 C   0  0  0  0  0  0  0  0  0  0  0  0
   27.9620    9.3090  -10.5060 C   0  0  0  0  0  0  0  0  0  0  0  0
   30.4860    9.8800  -12.9190 N   0  0  0  0  0  0  0  0  0  0  0  0
   30.1390   11.1940  -12.7010 C   0  0  0  0  0  0  0  0  0  0  0  0
   29.1180   11.0330  -11.7400 C   0  0  0  0  0  0  0  0  0  0  0  0
   26.3150    7.7260   -8.4280 C   0  0  0  0  0  0  0  0  0  0  0  0
   25.6230    8.8940   -8.6970 N   0  0  0  0  0  0  0  0  0  0  0  0
   24.9960    9.2940   -7.5320 N   0  0  0  0  0  0  0  0  0  0  0  0
   25.2740    8.3990   -6.5720 C   0  0  0  0  0  0  0  0  0  0  0  0
   26.0520    7.4470   -7.0980 C   0  0  0  0  0  0  0  0  0  0  0  0
   24.3150   10.3060   -7.5100 C   0  0  0  0  0  0  0  0  0  0  0  0
   23.6390   10.8320   -6.4150 C   0  0  0  0  0  0  0  0  0  0  0  0
   24.2990   10.9810   -8.7250 C   0  0  0  0  0  0  0  0  0  0  0  0
   23.6100   12.1820   -8.8450 C   0  0  0  0  0  0  0  0  0  0  0  0
   22.9340   12.7070   -7.7490 N   0  0  0  0  0  0  0  0  0  0  0  0
   22.9340   12.0780   -6.5270 C   0  0  0  0  0  0  0  0  0  0  0  0
   28.3820   12.2180  -11.1660 C   0  0  1  0  0  0  0  0  0  0  0  0
   28.7491    6.0350  -11.0031 H   0  0  0  0  0  0  0  0  0  0  0  0
   30.3122    7.1196  -12.5536 H   0  0  0  0  0  0  0  0  0  0  0  0
   27.2852    9.9410   -9.9123 H   0  0  0  0  0  0  0  0  0  0  0  0
   30.5442   12.1127  -13.1502 H   0  0  0  0  0  0  0  0  0  0  0  0
   24.9222    8.4411   -5.5306 H   0  0  0  0  0  0  0  0  0  0  0  0
   26.4285    6.5691   -6.5526 H   0  0  0  0  0  0  0  0  0  0  0  0
   23.6442   10.2907   -5.4574 H   0  0  0  0  0  0  0  0  0  0  0  0
   24.8321   10.5643   -9.5922 H   0  0  0  0  0  0  0  0  0  0  0  0
   23.5994   12.7169   -9.8062 H   0  0  0  0  0  0  0  0  0  0  0  0
   22.4112   12.5146   -5.6633 H   0  0  0  0  0  0  0  0  0  0  0  0
   28.4113   12.1708  -10.0674 H   0  0  0  0  0  0  0  0  0  0  0  0
   28.8619   13.1475  -11.5060 H   0  0  0  0  0  0  0  0  0  0  0  0
   27.3360   12.1998  -11.5060 H   0  0  0  0  0  0  0  0  0  0  0  0
  5  1  1  0
  5 11  1  0
  1  2  2  0
  1  7  1  0
  2  3  1  0
  3  4  1  0
  4  8  2  0
  4  6  1  0
  6 10  1  0
  6  7  2  0
  8  9  1  0
  9 10  2  0
 10 22  1  0
 11 12  2  0
 11 15  1  0
 12 13  1  0
 13 16  1  0
 13 14  1  0
 14 15  2  0
 16 18  1  0
 16 17  2  0
 17 21  1  0
 18 19  2  0
 19 20  1  0
 20 21  2  0
  2 23  1  0
  3 24  1  0
  7 25  1  0
  9 26  1  0
 14 27  1  0
 15 28  1  0
 17 29  1  0
 18 30  1  0
 19 31  1  0
 21 32  1  0
 22 33  1  1
 22 34  1  0
 22 35  1  0
M  END
>  <Pose ID>  (324)
427

>  <Score>  (324)
-5.9169793128967285

>  <smiles>  (324)
Cc1cnc2[nH]cc(Oc3ccn(-c4ccncc4)n3)cc1-2

$$$$

     RDKit          3D

 36 39  0  0  0  0  0  0  0  0999 V2000
   26.2110    6.9940   -7.7770 C   0  0  0  0  0  0  0  0  0  0  0  0
   27.3030    7.4450   -8.5080 N   0  0  0  0  0  0  0  0  0  0  0  0
   25.1020    7.8160   -7.6100 N   0  0  0  0  0  0  0  0  0  0  0  0
   25.0800    9.0210   -8.1660 C   0  0  0  0  0  0  0  0  0  0  0  0
   26.0670    9.6790   -8.8890 C   0  0  0  0  0  0  0  0  0  0  0  0
   27.2850    8.7110   -9.0770 C   0  0  0  0  0  0  0  0  0  0  0  0
   23.8870    9.6690   -7.8680 N   0  0  0  0  0  0  0  0  0  0  0  0
   23.6810   10.9750   -8.2930 C   0  0  0  0  0  0  0  0  0  0  0  0
   24.6670   11.6330   -9.0190 N   0  0  0  0  0  0  0  0  0  0  0  0
   25.8610   10.9990   -9.3170 C   0  0  0  0  0  0  0  0  0  0  0  0
   26.8700   11.6570  -10.0860 C   0  0  0  0  0  0  0  0  0  0  0  0
   27.2250   10.9870  -11.2510 C   0  0  0  0  0  0  0  0  0  0  0  0
   27.5970   12.7670   -9.6740 C   0  0  0  0  0  0  0  0  0  0  0  0
   28.6070   13.1570  -10.4110 C   0  0  0  0  0  0  0  0  0  0  0  0
   29.0190   12.5300  -11.5800 C   0  0  0  0  0  0  0  0  0  0  0  0
   28.3110   11.4260  -12.0010 C   0  0  0  0  0  0  0  0  0  0  0  0
   30.1320   13.0000  -12.2660 C   0  0  0  0  0  0  0  0  0  0  0  0
   29.3090   14.2570   -9.9280 C   0  0  0  0  0  0  0  0  0  0  0  0
   30.4220   14.7270  -10.6140 C   0  0  0  0  0  0  0  0  0  0  0  0
   30.8330   14.1000  -11.7830 N   0  0  0  0  0  0  0  0  0  0  0  0
   30.6660   12.4370  -13.5380 C   0  0  1  0  0  0  0  0  0  0  0  0
   28.7090   14.7000   -8.7700 O   0  0  0  0  0  0  0  0  0  0  0  0
   28.3370   16.1900   -8.6040 C   0  0  1  0  0  0  0  0  0  0  0  0
   26.2237    5.9885   -7.3312 H   0  0  0  0  0  0  0  0  0  0  0  0
   28.1468    9.0429   -9.6745 H   0  0  0  0  0  0  0  0  0  0  0  0
   22.7378   11.4886   -8.0552 H   0  0  0  0  0  0  0  0  0  0  0  0
   26.6475   10.1103  -11.5795 H   0  0  0  0  0  0  0  0  0  0  0  0
   27.3310   13.3047   -8.7520 H   0  0  0  0  0  0  0  0  0  0  0  0
   28.6014   10.8971  -12.9207 H   0  0  0  0  0  0  0  0  0  0  0  0
   30.9777   15.5957  -10.2312 H   0  0  0  0  0  0  0  0  0  0  0  0
   31.4067   11.6561  -13.3109 H   0  0  0  0  0  0  0  0  0  0  0  0
   29.8411   12.0016  -14.1211 H   0  0  0  0  0  0  0  0  0  0  0  0
   31.1444   13.2377  -14.1211 H   0  0  0  0  0  0  0  0  0  0  0  0
   28.2757   16.4356   -7.5335 H   0  0  0  0  0  0  0  0  0  0  0  0
   29.1066   16.8153   -9.0801 H   0  0  0  0  0  0  0  0  0  0  0  0
   27.3638   16.3802   -9.0801 H   0  0  0  0  0  0  0  0  0  0  0  0
 11 12  2  0
 11 13  1  0
 11 10  1  0
 12 16  1  0
 13 14  2  0
 14 15  1  0
 14 18  1  0
 15 17  1  0
 15 16  2  0
 17 21  1  0
 17 20  2  0
 18 19  2  0
 18 22  1  0
 19 20  1  0
  1  2  2  0
  1  3  1  0
  2  6  1  0
  3  4  2  0
  4  5  1  0
  4  7  1  0
  5 10  1  0
  5  6  2  0
  7  8  2  0
  8  9  1  0
  9 10  2  0
 22 23  1  0
  1 24  1  0
  6 25  1  0
  8 26  1  0
 12 27  1  0
 13 28  1  0
 16 29  1  0
 19 30  1  0
 21 31  1  1
 21 32  1  0
 21 33  1  0
 23 34  1  1
 23 35  1  0
 23 36  1  0
M  END
>  <Pose ID>  (325)
43

>  <Score>  (325)
-5.916780948638916

>  <smiles>  (325)
COc1cnc(C)c2ccc(-c3ncnc4ncncc34)cc12

$$$$

     RDKit          3D

 38 41  0  0  0  0  0  0  0  0999 V2000
   27.8600    7.8430  -10.2520 C   0  0  0  0  0  0  0  0  0  0  0  0
   28.8220    7.1240  -10.9500 C   0  0  0  0  0  0  0  0  0  0  0  0
   29.6590    7.7770  -11.8490 N   0  0  0  0  0  0  0  0  0  0  0  0
   29.5340    9.1470  -12.0460 C   0  0  0  0  0  0  0  0  0  0  0  0
   27.0680    7.0150   -9.3460 O   0  0  0  0  0  0  0  0  0  0  0  0
   28.5710    9.8650  -11.3470 C   0  0  0  0  0  0  0  0  0  0  0  0
   27.7350    9.2120  -10.4480 C   0  0  0  0  0  0  0  0  0  0  0  0
   30.2170    9.9890  -12.8480 N   0  0  0  0  0  0  0  0  0  0  0  0
   29.7090   11.2590  -12.6890 C   0  0  0  0  0  0  0  0  0  0  0  0
   28.6970   11.0130  -11.7350 C   0  0  0  0  0  0  0  0  0  0  0  0
   26.2510    7.5240   -8.3290 C   0  0  0  0  0  0  0  0  0  0  0  0
   25.4260    8.5880   -8.6550 N   0  0  0  0  0  0  0  0  0  0  0  0
   24.7740    8.9310   -7.5750 N   0  0  0  0  0  0  0  0  0  0  0  0
   25.0720    8.1640   -6.4560 C   0  0  0  0  0  0  0  0  0  0  0  0
   25.9960    7.2690   -6.9930 C   0  0  0  0  0  0  0  0  0  0  0  0
   23.8400    9.9570   -7.4850 C   0  0  0  0  0  0  0  0  0  0  0  0
   23.2050   10.2150   -6.2770 C   0  0  0  0  0  0  0  0  0  0  0  0
   23.5030    9.4480   -5.1570 C   0  0  0  0  0  0  0  0  0  0  0  0
   24.4370    8.4210   -5.2480 C   0  0  0  0  0  0  0  0  0  0  0  0
   22.8140    9.7290   -3.8440 C   0  0  1  0  0  0  0  0  0  0  0  0
   21.9310   10.9860   -3.8960 C   0  0  1  0  0  0  0  0  0  0  0  0
   27.8120   12.1210  -11.2200 C   0  0  1  0  0  0  0  0  0  0  0  0
   28.9218    6.0400  -10.7921 H   0  0  0  0  0  0  0  0  0  0  0  0
   30.3715    7.2450  -12.3688 H   0  0  0  0  0  0  0  0  0  0  0  0
   26.9745    9.7800   -9.8920 H   0  0  0  0  0  0  0  0  0  0  0  0
   30.0079   12.2018  -13.1705 H   0  0  0  0  0  0  0  0  0  0  0  0
   26.4671    6.4555   -6.4218 H   0  0  0  0  0  0  0  0  0  0  0  0
   23.6039   10.5647   -8.3710 H   0  0  0  0  0  0  0  0  0  0  0  0
   22.4659   11.0267   -6.2067 H   0  0  0  0  0  0  0  0  0  0  0  0
   24.6727    7.8122   -4.3626 H   0  0  0  0  0  0  0  0  0  0  0  0
   22.1830    8.8658   -3.5856 H   0  0  0  0  0  0  0  0  0  0  0  0
   23.5948    9.9018   -3.0887 H   0  0  0  0  0  0  0  0  0  0  0  0
   21.7002   11.3146   -2.8719 H   0  0  0  0  0  0  0  0  0  0  0  0
   22.4654   11.7878   -4.4267 H   0  0  0  0  0  0  0  0  0  0  0  0
   20.9955   10.7552   -4.4267 H   0  0  0  0  0  0  0  0  0  0  0  0
   27.8179   12.1137  -10.1200 H   0  0  0  0  0  0  0  0  0  0  0  0
   28.1882   13.0891  -11.5822 H   0  0  0  0  0  0  0  0  0  0  0  0
   26.7847   11.9681  -11.5822 H   0  0  0  0  0  0  0  0  0  0  0  0
  5  1  1  0
  5 11  1  0
  1  2  2  0
  1  7  1  0
  2  3  1  0
  3  4  1  0
  4  8  2  0
  4  6  1  0
  6 10  1  0
  6  7  2  0
  8  9  1  0
  9 10  2  0
 10 22  1  0
 11 12  2  0
 11 15  1  0
 12 13  1  0
 13 16  1  0
 13 14  1  0
 14 15  2  0
 14 19  1  0
 16 17  2  0
 17 18  1  0
 18 19  2  0
 18 20  1  0
 20 21  1  0
  2 23  1  0
  3 24  1  0
  7 25  1  0
  9 26  1  0
 15 27  1  0
 16 28  1  0
 17 29  1  0
 19 30  1  0
 20 31  1  1
 20 32  1  0
 21 33  1  1
 21 34  1  0
 21 35  1  0
 22 36  1  1
 22 37  1  0
 22 38  1  0
M  END
>  <Pose ID>  (326)
348

>  <Score>  (326)
-5.912883758544922

>  <smiles>  (326)
CCc1ccn2nc(Oc3c[nH]c4ncc(C)c-4c3)cc2c1

$$$$

     RDKit          3D

 36 39  0  0  0  0  0  0  0  0999 V2000
   27.2960    7.9360  -10.1840 C   0  0  0  0  0  0  0  0  0  0  0  0
   28.3710    7.1600  -10.5830 C   0  0  0  0  0  0  0  0  0  0  0  0
   29.3660    7.7060  -11.3820 N   0  0  0  0  0  0  0  0  0  0  0  0
   26.4760    7.1990   -9.4160 N   0  0  0  0  0  0  0  0  0  0  0  0
   29.2860    9.0360  -11.7790 C   0  0  0  0  0  0  0  0  0  0  0  0
   28.2080    9.8150  -11.3790 C   0  0  0  0  0  0  0  0  0  0  0  0
   27.2130    9.2690  -10.5800 C   0  0  0  0  0  0  0  0  0  0  0  0
   30.1110    9.7800  -12.5370 N   0  0  0  0  0  0  0  0  0  0  0  0
   29.5880   11.0480  -12.6450 C   0  0  0  0  0  0  0  0  0  0  0  0
   28.4100   10.9060  -11.8840 C   0  0  0  0  0  0  0  0  0  0  0  0
   25.9250    7.6680   -8.1870 C   0  0  0  0  0  0  0  0  0  0  0  0
   25.2620    6.7590   -7.3710 N   0  0  0  0  0  0  0  0  0  0  0  0
   24.6090    7.1990   -6.2250 C   0  0  0  0  0  0  0  0  0  0  0  0
   24.6190    8.5500   -5.8960 C   0  0  0  0  0  0  0  0  0  0  0  0
   25.2830    9.4590   -6.7130 C   0  0  0  0  0  0  0  0  0  0  0  0
   25.9580    9.0120   -7.8420 C   0  0  0  0  0  0  0  0  0  0  0  0
   24.0140    6.3850   -5.4960 O   0  0  0  0  0  0  0  0  0  0  0  0
   25.4170   10.8560   -6.6170 C   0  0  0  0  0  0  0  0  0  0  0  0
   24.8710   11.7690   -7.4590 O   0  0  0  0  0  0  0  0  0  0  0  0
   25.2250   13.0120   -7.0320 N   0  0  0  0  0  0  0  0  0  0  0  0
   25.9780   12.8680   -5.9200 C   0  0  0  0  0  0  0  0  0  0  0  0
   26.1390   11.5240   -5.6750 C   0  0  0  0  0  0  0  0  0  0  0  0
   30.1250   12.2540  -13.3740 C   0  0  1  0  0  0  0  0  0  0  0  0
   28.4366    6.1087  -10.2661 H   0  0  0  0  0  0  0  0  0  0  0  0
   30.1632    7.1262  -11.6806 H   0  0  0  0  0  0  0  0  0  0  0  0
   26.2334    6.2486   -9.7303 H   0  0  0  0  0  0  0  0  0  0  0  0
   26.3612    9.8872  -10.2603 H   0  0  0  0  0  0  0  0  0  0  0  0
   27.7058   11.7407  -11.7520 H   0  0  0  0  0  0  0  0  0  0  0  0
   25.2544    5.7585   -7.6154 H   0  0  0  0  0  0  0  0  0  0  0  0
   24.1021    8.8997   -4.9902 H   0  0  0  0  0  0  0  0  0  0  0  0
   26.5197    9.7247   -8.4637 H   0  0  0  0  0  0  0  0  0  0  0  0
   26.3923   13.6866   -5.3132 H   0  0  0  0  0  0  0  0  0  0  0  0
   26.7381   11.0736   -4.8699 H   0  0  0  0  0  0  0  0  0  0  0  0
   30.4595   13.0052  -12.6434 H   0  0  0  0  0  0  0  0  0  0  0  0
   30.9741   11.9529  -14.0052 H   0  0  0  0  0  0  0  0  0  0  0  0
   29.3331   12.6836  -14.0052 H   0  0  0  0  0  0  0  0  0  0  0  0
  4  1  1  0
  4 11  1  0
  1  2  2  0
  1  7  1  0
  2  3  1  0
  3  5  1  0
  5  8  2  0
  5  6  1  0
  6 10  1  0
  6  7  2  0
  8  9  1  0
  9 23  1  0
  9 10  2  0
 11 16  2  0
 11 12  1  0
 12 13  1  0
 13 14  1  0
 13 17  2  0
 14 15  2  0
 15 16  1  0
 15 18  1  0
 18 19  1  0
 18 22  2  0
 19 20  1  0
 20 21  2  0
 21 22  1  0
  2 24  1  0
  3 25  1  0
  4 26  1  0
  7 27  1  0
 10 28  1  0
 12 29  1  0
 14 30  1  0
 16 31  1  0
 21 32  1  0
 22 33  1  0
 23 34  1  1
 23 35  1  0
 23 36  1  0
M  END
>  <Pose ID>  (327)
132

>  <Score>  (327)
-5.911533832550049

>  <smiles>  (327)
Cc1cc2cc(Nc3cc(-c4ccno4)cc(=O)[nH]3)c[nH]c-2n1

$$$$

     RDKit          3D

 40 43  0  0  0  0  0  0  0  0999 V2000
   27.6240    7.6620  -10.1640 C   0  0  0  0  0  0  0  0  0  0  0  0
   28.5560    7.0280  -10.9730 C   0  0  0  0  0  0  0  0  0  0  0  0
   29.3130    7.7690  -11.8740 N   0  0  0  0  0  0  0  0  0  0  0  0
   29.1390    9.1430  -11.9640 C   0  0  0  0  0  0  0  0  0  0  0  0
   26.9190    6.7490   -9.2690 O   0  0  0  0  0  0  0  0  0  0  0  0
   28.2040    9.7790  -11.1520 C   0  0  0  0  0  0  0  0  0  0  0  0
   27.4500    9.0380  -10.2510 C   0  0  0  0  0  0  0  0  0  0  0  0
   29.7410   10.0620  -12.7440 N   0  0  0  0  0  0  0  0  0  0  0  0
   29.2100   11.3010  -12.4610 C   0  0  0  0  0  0  0  0  0  0  0  0
   28.2720   10.9550  -11.4640 C   0  0  0  0  0  0  0  0  0  0  0  0
   26.1570    7.1580   -8.1680 C   0  0  0  0  0  0  0  0  0  0  0  0
   25.2830    8.2150   -8.3630 N   0  0  0  0  0  0  0  0  0  0  0  0
   24.6960    8.4590   -7.2200 N   0  0  0  0  0  0  0  0  0  0  0  0
   25.0900    7.6250   -6.1810 C   0  0  0  0  0  0  0  0  0  0  0  0
   26.0000    6.8020   -6.8410 C   0  0  0  0  0  0  0  0  0  0  0  0
   23.7430    9.4460   -6.9950 C   0  0  0  0  0  0  0  0  0  0  0  0
   23.1830    9.5980   -5.7320 C   0  0  0  0  0  0  0  0  0  0  0  0
   23.5770    8.7630   -4.6920 C   0  0  0  0  0  0  0  0  0  0  0  0
   24.5310    7.7760   -4.9180 C   0  0  0  0  0  0  0  0  0  0  0  0
   22.2450   10.4780   -5.2690 N   0  0  0  0  0  0  0  0  0  0  0  0
   22.6540   11.6080   -4.4200 C   0  0  1  0  0  0  0  0  0  0  0  0
   20.8390   10.0590   -5.2850 C   0  0  1  0  0  0  0  0  0  0  0  0
   29.5380   12.6500  -13.0500 C   0  0  1  0  0  0  0  0  0  0  0  0
   28.6961    5.9393  -10.9017 H   0  0  0  0  0  0  0  0  0  0  0  0
   30.0037    7.2975  -12.4753 H   0  0  0  0  0  0  0  0  0  0  0  0
   26.7145    9.5408   -9.6058 H   0  0  0  0  0  0  0  0  0  0  0  0
   27.6312   11.7132  -10.9901 H   0  0  0  0  0  0  0  0  0  0  0  0
   26.5316    5.9664   -6.3623 H   0  0  0  0  0  0  0  0  0  0  0  0
   23.4319   10.1072   -7.8172 H   0  0  0  0  0  0  0  0  0  0  0  0
   23.1349    8.8828   -3.6919 H   0  0  0  0  0  0  0  0  0  0  0  0
   24.8430    7.1147   -4.0962 H   0  0  0  0  0  0  0  0  0  0  0  0
   22.5523   11.3269   -3.3614 H   0  0  0  0  0  0  0  0  0  0  0  0
   23.7023   11.8653   -4.6319 H   0  0  0  0  0  0  0  0  0  0  0  0
   22.0132   12.4766   -4.6319 H   0  0  0  0  0  0  0  0  0  0  0  0
   20.4768    9.9511   -4.2520 H   0  0  0  0  0  0  0  0  0  0  0  0
   20.2365   10.8166   -5.8075 H   0  0  0  0  0  0  0  0  0  0  0  0
   20.7496    9.0952   -5.8075 H   0  0  0  0  0  0  0  0  0  0  0  0
   29.7134   13.3716  -12.2385 H   0  0  0  0  0  0  0  0  0  0  0  0
   30.4426   12.5690  -13.6706 H   0  0  0  0  0  0  0  0  0  0  0  0
   28.6972   12.9934  -13.6706 H   0  0  0  0  0  0  0  0  0  0  0  0
  5  1  1  0
  5 11  1  0
  1  2  2  0
  1  7  1  0
  2  3  1  0
  3  4  1  0
  4  8  2  0
  4  6  1  0
  6 10  1  0
  6  7  2  0
  8  9  1  0
  9 23  1  0
  9 10  2  0
 11 12  2  0
 11 15  1  0
 12 13  1  0
 13 16  1  0
 13 14  1  0
 14 15  2  0
 14 19  1  0
 16 17  2  0
 17 20  1  0
 17 18  1  0
 18 19  2  0
 20 22  1  0
 20 21  1  0
  2 24  1  0
  3 25  1  0
  7 26  1  0
 10 27  1  0
 15 28  1  0
 16 29  1  0
 18 30  1  0
 19 31  1  0
 21 32  1  1
 21 33  1  0
 21 34  1  0
 22 35  1  1
 22 36  1  0
 22 37  1  0
 23 38  1  1
 23 39  1  0
 23 40  1  0
M  END
>  <Pose ID>  (328)
337

>  <Score>  (328)
-5.908504009246826

>  <smiles>  (328)
Cc1cc2cc(Oc3cc4ccc(N(C)C)cn4n3)c[nH]c-2n1

$$$$

     RDKit          3D

 37 40  0  0  0  0  0  0  0  0999 V2000
   27.8870    7.8450  -10.2760 C   0  0  0  0  0  0  0  0  0  0  0  0
   28.8470    7.1250  -10.9770 C   0  0  0  0  0  0  0  0  0  0  0  0
   29.6910    7.7780  -11.8660 N   0  0  0  0  0  0  0  0  0  0  0  0
   29.5770    9.1500  -12.0570 C   0  0  0  0  0  0  0  0  0  0  0  0
   27.0870    7.0170   -9.3790 O   0  0  0  0  0  0  0  0  0  0  0  0
   28.6140    9.8700  -11.3560 C   0  0  0  0  0  0  0  0  0  0  0  0
   27.7720    9.2160  -10.4660 C   0  0  0  0  0  0  0  0  0  0  0  0
   30.2670    9.9940  -12.8500 N   0  0  0  0  0  0  0  0  0  0  0  0
   29.7660   11.2650  -12.6860 C   0  0  0  0  0  0  0  0  0  0  0  0
   28.7480   11.0190  -11.7370 C   0  0  0  0  0  0  0  0  0  0  0  0
   26.2690    7.5230   -8.3610 C   0  0  0  0  0  0  0  0  0  0  0  0
   25.4520    8.5950   -8.6860 N   0  0  0  0  0  0  0  0  0  0  0  0
   24.7960    8.9350   -7.5990 N   0  0  0  0  0  0  0  0  0  0  0  0
   25.0750    8.1580   -6.4810 C   0  0  0  0  0  0  0  0  0  0  0  0
   26.0070    7.2620   -7.0280 C   0  0  0  0  0  0  0  0  0  0  0  0
   23.8720    9.9700   -7.5130 C   0  0  0  0  0  0  0  0  0  0  0  0
   23.2260   10.2280   -6.3110 C   0  0  0  0  0  0  0  0  0  0  0  0
   23.5070    9.4510   -5.1920 C   0  0  0  0  0  0  0  0  0  0  0  0
   24.4300    8.4170   -5.2770 N   0  0  0  0  0  0  0  0  0  0  0  0
   30.1870   12.5600  -13.3350 C   0  0  1  0  0  0  0  0  0  0  0  0
   27.8670   12.1280  -11.2190 C   0  0  1  0  0  0  0  0  0  0  0  0
   22.8070    9.7330   -3.8850 C   0  0  1  0  0  0  0  0  0  0  0  0
   28.9383    6.0390  -10.8279 H   0  0  0  0  0  0  0  0  0  0  0  0
   30.4030    7.2444  -12.3849 H   0  0  0  0  0  0  0  0  0  0  0  0
   27.0123    9.7852   -9.9103 H   0  0  0  0  0  0  0  0  0  0  0  0
   26.4760    6.4446   -6.4607 H   0  0  0  0  0  0  0  0  0  0  0  0
   23.6523   10.5853   -8.3979 H   0  0  0  0  0  0  0  0  0  0  0  0
   22.4932   11.0456   -6.2439 H   0  0  0  0  0  0  0  0  0  0  0  0
   30.4273   13.2991  -12.5566 H   0  0  0  0  0  0  0  0  0  0  0  0
   31.0745   12.3849  -13.9609 H   0  0  0  0  0  0  0  0  0  0  0  0
   29.3662   12.9403  -13.9609 H   0  0  0  0  0  0  0  0  0  0  0  0
   27.8744   12.1187  -10.1191 H   0  0  0  0  0  0  0  0  0  0  0  0
   28.2453   13.0958  -11.5801 H   0  0  0  0  0  0  0  0  0  0  0  0
   26.8388   11.9784  -11.5801 H   0  0  0  0  0  0  0  0  0  0  0  0
   23.4700    9.4659   -3.0489 H   0  0  0  0  0  0  0  0  0  0  0  0
   22.5560   10.8024   -3.8268 H   0  0  0  0  0  0  0  0  0  0  0  0
   21.8848    9.1362   -3.8268 H   0  0  0  0  0  0  0  0  0  0  0  0
  1  2  2  0
  1  7  1  0
  1  5  1  0
  2  3  1  0
  3  4  1  0
  4  8  2  0
  4  6  1  0
  6 10  1  0
  6  7  2  0
  8  9  1  0
  9 20  1  0
  9 10  2  0
 10 21  1  0
  5 11  1  0
 11 12  2  0
 11 15  1  0
 12 13  1  0
 13 16  1  0
 13 14  1  0
 14 15  2  0
 14 19  1  0
 16 17  2  0
 17 18  1  0
 18 19  2  0
 18 22  1  0
  2 23  1  0
  3 24  1  0
  7 25  1  0
 15 26  1  0
 16 27  1  0
 17 28  1  0
 20 29  1  1
 20 30  1  0
 20 31  1  0
 21 32  1  1
 21 33  1  0
 21 34  1  0
 22 35  1  1
 22 36  1  0
 22 37  1  0
M  END
>  <Pose ID>  (329)
369

>  <Score>  (329)
-5.900628089904785

>  <smiles>  (329)
Cc1ccn2nc(Oc3c[nH]c4nc(C)c(C)c-4c3)cc2n1

$$$$

     RDKit          3D

 28 31  0  0  0  0  0  0  0  0999 V2000
   27.1810    8.2600   -9.5370 C   0  0  0  0  0  0  0  0  0  0  0  0
   27.1160    7.0740   -8.8130 N   0  0  0  0  0  0  0  0  0  0  0  0
   26.2160    6.9520   -7.7600 C   0  0  0  0  0  0  0  0  0  0  0  0
   25.3820    8.0160   -7.4310 C   0  0  0  0  0  0  0  0  0  0  0  0
   25.4470    9.2000   -8.1560 N   0  0  0  0  0  0  0  0  0  0  0  0
   26.3480    9.3230   -9.2080 C   0  0  0  0  0  0  0  0  0  0  0  0
   24.4270    8.0690   -6.4220 C   0  0  0  0  0  0  0  0  0  0  0  0
   24.1640    6.9740   -5.6080 C   0  0  0  0  0  0  0  0  0  0  0  0
   23.7080    9.2470   -6.2560 C   0  0  0  0  0  0  0  0  0  0  0  0
   23.1820    7.0540   -4.6310 N   0  0  0  0  0  0  0  0  0  0  0  0
   22.4610    8.2320   -4.4650 C   0  0  0  0  0  0  0  0  0  0  0  0
   24.3270   10.0730   -7.4060 N   0  0  0  0  0  0  0  0  0  0  0  0
   22.7230    9.3280   -5.2780 C   0  0  0  0  0  0  0  0  0  0  0  0
   28.0920    8.3820  -10.6010 C   0  0  0  0  0  0  0  0  0  0  0  0
   29.1280    9.3090  -10.6010 O   0  0  0  0  0  0  0  0  0  0  0  0
   28.1130    7.6570  -11.7580 N   0  0  0  0  0  0  0  0  0  0  0  0
   29.7420    9.0910  -11.8120 C   0  0  0  0  0  0  0  0  0  0  0  0
   29.1290    8.0830  -12.5410 C   0  0  0  0  0  0  0  0  0  0  0  0
   21.9410   10.6060   -5.0990 C   0  0  1  0  0  0  0  0  0  0  0  0
   26.1634    6.0144   -7.1872 H   0  0  0  0  0  0  0  0  0  0  0  0
   26.4015   10.2613   -9.7797 H   0  0  0  0  0  0  0  0  0  0  0  0
   24.7349    6.0428   -5.7383 H   0  0  0  0  0  0  0  0  0  0  0  0
   21.6832    8.2959   -3.6898 H   0  0  0  0  0  0  0  0  0  0  0  0
   30.6203    9.6528  -12.1629 H   0  0  0  0  0  0  0  0  0  0  0  0
   29.4084    7.7116  -13.5380 H   0  0  0  0  0  0  0  0  0  0  0  0
   21.8152   10.8116   -4.0257 H   0  0  0  0  0  0  0  0  0  0  0  0
   22.4850   11.4378   -5.5704 H   0  0  0  0  0  0  0  0  0  0  0  0
   20.9528   10.5003   -5.5704 H   0  0  0  0  0  0  0  0  0  0  0  0
  1 14  1  0
  1  6  2  0
  1  2  1  0
  2  3  2  0
  3  4  1  0
  4  5  1  0
  4  7  2  0
  5  6  1  0
  5 12  1  0
  7  9  1  0
  7  8  1  0
  8 10  2  0
  9 12  2  0
  9 13  1  0
 10 11  1  0
 11 13  2  0
 13 19  1  0
 14 16  2  0
 14 15  1  0
 15 17  1  0
 16 18  1  0
 17 18  2  0
  3 20  1  0
  6 21  1  0
  8 22  1  0
 11 23  1  0
 17 24  1  0
 18 25  1  0
 19 26  1  1
 19 27  1  0
 19 28  1  0
M  END
>  <Pose ID>  (330)
54

>  <Score>  (330)
-5.8985209465026855

>  <smiles>  (330)
Cc1cncc2c1nn1cc(-c3ncco3)ncc21

$$$$

     RDKit          3D

 37 40  0  0  0  0  0  0  0  0999 V2000
   27.6090    8.0270  -10.2340 C   0  0  0  0  0  0  0  0  0  0  0  0
   28.4930    7.1570  -10.8580 C   0  0  0  0  0  0  0  0  0  0  0  0
   29.4550    7.6520  -11.7310 N   0  0  0  0  0  0  0  0  0  0  0  0
   29.5330    9.0180  -11.9800 C   0  0  0  0  0  0  0  0  0  0  0  0
   26.6670    7.3540   -9.3450 O   0  0  0  0  0  0  0  0  0  0  0  0
   28.6460    9.8890  -11.3540 C   0  0  0  0  0  0  0  0  0  0  0  0
   27.6860    9.3930  -10.4810 C   0  0  0  0  0  0  0  0  0  0  0  0
   30.3630    9.7250  -12.7700 N   0  0  0  0  0  0  0  0  0  0  0  0
   30.0300   11.0590  -12.6800 C   0  0  0  0  0  0  0  0  0  0  0  0
   28.9500   10.9910  -11.7740 C   0  0  0  0  0  0  0  0  0  0  0  0
   25.8820    8.0100   -8.3890 C   0  0  0  0  0  0  0  0  0  0  0  0
   25.2310    9.1640   -8.7940 N   0  0  0  0  0  0  0  0  0  0  0  0
   24.5800    9.6350   -7.7540 N   0  0  0  0  0  0  0  0  0  0  0  0
   24.7040    8.8810   -6.5950 C   0  0  0  0  0  0  0  0  0  0  0  0
   25.5310    7.8460   -7.0600 C   0  0  0  0  0  0  0  0  0  0  0  0
   23.7990   10.7860   -7.7540 C   0  0  0  0  0  0  0  0  0  0  0  0
   23.1430   11.1820   -6.5950 C   0  0  0  0  0  0  0  0  0  0  0  0
   23.2680   10.4270   -5.4350 C   0  0  0  0  0  0  0  0  0  0  0  0
   24.0470    9.2760   -5.4350 N   0  0  0  0  0  0  0  0  0  0  0  0
   22.5580   10.8560   -4.1750 C   0  0  1  0  0  0  0  0  0  0  0  0
   22.5300    9.8020   -3.0900 C   0  0  1  0  0  0  0  0  0  0  0  0
   25.9860    6.6860   -6.2080 C   0  0  1  0  0  0  0  0  0  0  0  0
   28.4322    6.0764  -10.6617 H   0  0  0  0  0  0  0  0  0  0  0  0
   30.1106    7.0064  -12.1939 H   0  0  0  0  0  0  0  0  0  0  0  0
   26.9862   10.0815   -9.9848 H   0  0  0  0  0  0  0  0  0  0  0  0
   30.4798   11.9321  -13.1754 H   0  0  0  0  0  0  0  0  0  0  0  0
   28.4062   11.8944  -11.4607 H   0  0  0  0  0  0  0  0  0  0  0  0
   23.7006   11.3833   -8.6725 H   0  0  0  0  0  0  0  0  0  0  0  0
   22.5253   12.0922   -6.5956 H   0  0  0  0  0  0  0  0  0  0  0  0
   23.0674   11.7464   -3.7780 H   0  0  0  0  0  0  0  0  0  0  0  0
   21.5118   11.0521   -4.4526 H   0  0  0  0  0  0  0  0  0  0  0  0
   22.5430   10.2901   -2.1043 H   0  0  0  0  0  0  0  0  0  0  0  0
   21.6155    9.1987   -3.1884 H   0  0  0  0  0  0  0  0  0  0  0  0
   23.4112    9.1510   -3.1884 H   0  0  0  0  0  0  0  0  0  0  0  0
   25.8828    6.9492   -5.1449 H   0  0  0  0  0  0  0  0  0  0  0  0
   25.3673    5.8038   -6.4291 H   0  0  0  0  0  0  0  0  0  0  0  0
   27.0395    6.4597   -6.4291 H   0  0  0  0  0  0  0  0  0  0  0  0
 11  5  1  0
 11 12  2  0
 11 15  1  0
 12 13  1  0
 13 16  1  0
 13 14  1  0
 14 15  2  0
 14 19  1  0
 15 22  1  0
 16 17  2  0
 17 18  1  0
 18 19  2  0
 18 20  1  0
 20 21  1  0
  5  1  1  0
  1  2  2  0
  1  7  1  0
  2  3  1  0
  3  4  1  0
  4  8  2  0
  4  6  1  0
  6 10  1  0
  6  7  2  0
  8  9  1  0
  9 10  2  0
  2 23  1  0
  3 24  1  0
  7 25  1  0
  9 26  1  0
 10 27  1  0
 16 28  1  0
 17 29  1  0
 20 30  1  1
 20 31  1  0
 21 32  1  1
 21 33  1  0
 21 34  1  0
 22 35  1  1
 22 36  1  0
 22 37  1  0
M  END
>  <Pose ID>  (331)
380

>  <Score>  (331)
-5.891481399536133

>  <smiles>  (331)
CCc1ccn2nc(Oc3c[nH]c4nccc-4c3)c(C)c2n1

$$$$

     RDKit          3D

 38 41  0  0  0  0  0  0  0  0999 V2000
   27.5910    8.0070  -10.2510 C   0  0  0  0  0  0  0  0  0  0  0  0
   28.4650    7.1520  -10.9110 C   0  0  0  0  0  0  0  0  0  0  0  0
   29.4200    7.6720  -11.7780 N   0  0  0  0  0  0  0  0  0  0  0  0
   29.5000    9.0450  -11.9820 C   0  0  0  0  0  0  0  0  0  0  0  0
   26.6550    7.3070   -9.3740 O   0  0  0  0  0  0  0  0  0  0  0  0
   28.6250    9.8980  -11.3210 C   0  0  0  0  0  0  0  0  0  0  0  0
   27.6710    9.3780  -10.4530 C   0  0  0  0  0  0  0  0  0  0  0  0
   30.3260    9.7750  -12.7590 N   0  0  0  0  0  0  0  0  0  0  0  0
   30.0000   11.1050  -12.6210 C   0  0  0  0  0  0  0  0  0  0  0  0
   28.9290   11.0140  -11.7060 C   0  0  0  0  0  0  0  0  0  0  0  0
   25.8820    7.9350   -8.3890 C   0  0  0  0  0  0  0  0  0  0  0  0
   25.2310    9.1040   -8.7480 N   0  0  0  0  0  0  0  0  0  0  0  0
   24.5960    9.5450   -7.6940 N   0  0  0  0  0  0  0  0  0  0  0  0
   24.7390    8.7510   -6.5630 C   0  0  0  0  0  0  0  0  0  0  0  0
   25.5440    7.7290   -7.0640 C   0  0  0  0  0  0  0  0  0  0  0  0
   23.8160   10.6950   -7.6410 C   0  0  0  0  0  0  0  0  0  0  0  0
   23.1800   11.0490   -6.4580 C   0  0  0  0  0  0  0  0  0  0  0  0
   23.3230   10.2550   -5.3260 C   0  0  0  0  0  0  0  0  0  0  0  0
   24.1030    9.1040   -5.3800 C   0  0  0  0  0  0  0  0  0  0  0  0
   22.6330   10.6410   -4.0410 C   0  0  1  0  0  0  0  0  0  0  0  0
   21.9420   12.0110   -4.1280 C   0  0  1  0  0  0  0  0  0  0  0  0
   25.9930    6.5370   -6.2550 C   0  0  1  0  0  0  0  0  0  0  0  0
   28.4017    6.0660  -10.7481 H   0  0  0  0  0  0  0  0  0  0  0  0
   30.0682    7.0399  -12.2691 H   0  0  0  0  0  0  0  0  0  0  0  0
   26.9800   10.0529   -9.9267 H   0  0  0  0  0  0  0  0  0  0  0  0
   30.4489   11.9917  -13.0924 H   0  0  0  0  0  0  0  0  0  0  0  0
   28.3934   11.9089  -11.3564 H   0  0  0  0  0  0  0  0  0  0  0  0
   23.7027   11.3244   -8.5360 H   0  0  0  0  0  0  0  0  0  0  0  0
   22.5626   11.9585   -6.4169 H   0  0  0  0  0  0  0  0  0  0  0  0
   24.2159    8.4737   -4.4856 H   0  0  0  0  0  0  0  0  0  0  0  0
   21.8755    9.8790   -3.8055 H   0  0  0  0  0  0  0  0  0  0  0  0
   23.4019   10.7056   -3.2571 H   0  0  0  0  0  0  0  0  0  0  0  0
   21.7507   12.3903   -3.1133 H   0  0  0  0  0  0  0  0  0  0  0  0
   22.5923   12.7161   -4.6665 H   0  0  0  0  0  0  0  0  0  0  0  0
   20.9884   11.9072   -4.6665 H   0  0  0  0  0  0  0  0  0  0  0  0
   25.9061    6.7677   -5.1830 H   0  0  0  0  0  0  0  0  0  0  0  0
   25.3596    5.6706   -6.4961 H   0  0  0  0  0  0  0  0  0  0  0  0
   27.0406    6.3038   -6.4961 H   0  0  0  0  0  0  0  0  0  0  0  0
 11  5  1  0
 11 12  2  0
 11 15  1  0
 12 13  1  0
 13 16  1  0
 13 14  1  0
 14 15  2  0
 14 19  1  0
 15 22  1  0
 16 17  2  0
 17 18  1  0
 18 19  2  0
 18 20  1  0
 20 21  1  0
  5  1  1  0
  1  2  2  0
  1  7  1  0
  2  3  1  0
  3  4  1  0
  4  8  2  0
  4  6  1  0
  6 10  1  0
  6  7  2  0
  8  9  1  0
  9 10  2  0
  2 23  1  0
  3 24  1  0
  7 25  1  0
  9 26  1  0
 10 27  1  0
 16 28  1  0
 17 29  1  0
 19 30  1  0
 20 31  1  1
 20 32  1  0
 21 33  1  1
 21 34  1  0
 21 35  1  0
 22 36  1  1
 22 37  1  0
 22 38  1  0
M  END
>  <Pose ID>  (332)
346

>  <Score>  (332)
-5.8899312019348145

>  <smiles>  (332)
CCc1ccn2nc(Oc3c[nH]c4nccc-4c3)c(C)c2c1

$$$$

     RDKit          3D

 44 47  0  0  0  0  0  0  0  0999 V2000
   27.9070    7.8760  -10.2760 C   0  0  0  0  0  0  0  0  0  0  0  0
   28.8870    7.1440  -10.9340 C   0  0  0  0  0  0  0  0  0  0  0  0
   29.7470    7.7750  -11.8220 N   0  0  0  0  0  0  0  0  0  0  0  0
   29.6270    9.1420  -12.0530 C   0  0  0  0  0  0  0  0  0  0  0  0
   27.0920    7.0680   -9.3720 O   0  0  0  0  0  0  0  0  0  0  0  0
   28.6450    9.8740  -11.3940 C   0  0  0  0  0  0  0  0  0  0  0  0
   27.7870    9.2410  -10.5050 C   0  0  0  0  0  0  0  0  0  0  0  0
   30.3310    9.9680  -12.8530 N   0  0  0  0  0  0  0  0  0  0  0  0
   29.8200   11.2400  -12.7330 C   0  0  0  0  0  0  0  0  0  0  0  0
   28.7820   11.0140  -11.8030 C   0  0  0  0  0  0  0  0  0  0  0  0
   26.2490    7.5970   -8.3890 C   0  0  0  0  0  0  0  0  0  0  0  0
   25.4330    8.6550   -8.7590 N   0  0  0  0  0  0  0  0  0  0  0  0
   24.7110    9.0450   -7.6460 N   0  0  0  0  0  0  0  0  0  0  0  0
   25.0510    8.2510   -6.6210 C   0  0  0  0  0  0  0  0  0  0  0  0
   25.9590    7.3710   -7.0550 C   0  0  0  0  0  0  0  0  0  0  0  0
   23.7700   10.1310   -7.7210 C   0  0  1  0  0  0  0  0  0  0  0  0
   30.2480   12.5210  -13.4070 C   0  0  1  0  0  0  0  0  0  0  0  0
   24.4420    8.4890   -5.4190 N   0  0  0  0  0  0  0  0  0  0  0  0
   23.3730    7.6620   -4.8400 C   0  0  1  0  0  0  0  0  0  0  0  0
   24.7690    9.6660   -4.6280 C   0  0  1  0  0  0  0  0  0  0  0  0
   23.5180    9.7890   -3.6990 C   0  0  1  0  0  0  0  0  0  0  0  0
   23.1290    8.3530   -3.4220 C   0  0  1  0  0  0  0  0  0  0  0  0
   29.9650   13.6610  -12.4160 C   0  0  1  0  0  0  0  0  0  0  0  0
   28.9816    6.0634  -10.7512 H   0  0  0  0  0  0  0  0  0  0  0  0
   30.4736    7.2318  -12.3097 H   0  0  0  0  0  0  0  0  0  0  0  0
   27.0120    9.8203   -9.9818 H   0  0  0  0  0  0  0  0  0  0  0  0
   28.1268   11.8296  -11.4630 H   0  0  0  0  0  0  0  0  0  0  0  0
   26.4113    6.5797   -6.4392 H   0  0  0  0  0  0  0  0  0  0  0  0
   23.4948   10.4486   -6.7044 H   0  0  0  0  0  0  0  0  0  0  0  0
   24.2267   10.9755   -8.2580 H   0  0  0  0  0  0  0  0  0  0  0  0
   22.8691    9.7992   -8.2580 H   0  0  0  0  0  0  0  0  0  0  0  0
   31.3214   12.4835  -13.6444 H   0  0  0  0  0  0  0  0  0  0  0  0
   29.7011   12.6727  -14.3493 H   0  0  0  0  0  0  0  0  0  0  0  0
   22.4649    7.6956   -5.4598 H   0  0  0  0  0  0  0  0  0  0  0  0
   23.6342    6.5959   -4.7684 H   0  0  0  0  0  0  0  0  0  0  0  0
   25.6879    9.5122   -4.0432 H   0  0  0  0  0  0  0  0  0  0  0  0
   24.9651   10.5654   -5.2302 H   0  0  0  0  0  0  0  0  0  0  0  0
   23.7733   10.3125   -2.7658 H   0  0  0  0  0  0  0  0  0  0  0  0
   22.7035   10.3685   -4.1581 H   0  0  0  0  0  0  0  0  0  0  0  0
   22.0751    8.2765   -3.1165 H   0  0  0  0  0  0  0  0  0  0  0  0
   23.6963    7.8910   -2.6006 H   0  0  0  0  0  0  0  0  0  0  0  0
   30.0586   13.2839  -11.3869 H   0  0  0  0  0  0  0  0  0  0  0  0
   30.6886   14.4739  -12.5759 H   0  0  0  0  0  0  0  0  0  0  0  0
   28.9452   14.0411  -12.5759 H   0  0  0  0  0  0  0  0  0  0  0  0
  1  2  2  0
  1  7  1  0
  1  5  1  0
  2  3  1  0
  3  4  1  0
  4  8  2  0
  4  6  1  0
  6 10  1  0
  6  7  2  0
  8  9  1  0
  9 17  1  0
  9 10  2  0
 17 23  1  0
  5 11  1  0
 11 12  2  0
 11 15  1  0
 12 13  1  0
 13 16  1  0
 13 14  1  0
 14 15  2  0
 14 18  1  0
 18 19  1  0
 18 20  1  0
 19 22  1  0
 20 21  1  0
 21 22  1  0
  2 24  1  0
  3 25  1  0
  7 26  1  0
 10 27  1  0
 15 28  1  0
 16 29  1  1
 16 30  1  0
 16 31  1  0
 17 32  1  6
 17 33  1  0
 19 34  1  6
 19 35  1  0
 20 36  1  1
 20 37  1  0
 21 38  1  1
 21 39  1  0
 22 40  1  1
 22 41  1  0
 23 42  1  1
 23 43  1  0
 23 44  1  0
M  END
>  <Pose ID>  (333)
488

>  <Score>  (333)
-5.889888286590576

>  <smiles>  (333)
CCc1cc2cc(Oc3cc(N4CCCC4)n(C)n3)c[nH]c-2n1

$$$$

     RDKit          3D

 38 41  0  0  0  0  0  0  0  0999 V2000
   27.8740    7.8490  -10.2500 C   0  0  0  0  0  0  0  0  0  0  0  0
   28.8350    7.1250  -10.9450 C   0  0  0  0  0  0  0  0  0  0  0  0
   29.6820    7.7740  -11.8370 N   0  0  0  0  0  0  0  0  0  0  0  0
   29.5690    9.1460  -12.0300 C   0  0  0  0  0  0  0  0  0  0  0  0
   27.0700    7.0240   -9.3520 O   0  0  0  0  0  0  0  0  0  0  0  0
   28.6080    9.8690  -11.3340 C   0  0  0  0  0  0  0  0  0  0  0  0
   27.7610    9.2200  -10.4420 C   0  0  0  0  0  0  0  0  0  0  0  0
   30.2640    9.9850  -12.8240 N   0  0  0  0  0  0  0  0  0  0  0  0
   29.7650   11.2580  -12.6640 C   0  0  0  0  0  0  0  0  0  0  0  0
   28.7450   11.0170  -11.7170 C   0  0  0  0  0  0  0  0  0  0  0  0
   26.2510    7.5360   -8.3380 C   0  0  0  0  0  0  0  0  0  0  0  0
   25.4360    8.6080   -8.6650 N   0  0  0  0  0  0  0  0  0  0  0  0
   24.7810    8.9520   -7.5880 N   0  0  0  0  0  0  0  0  0  0  0  0
   25.0660    8.1790   -6.4700 C   0  0  0  0  0  0  0  0  0  0  0  0
   25.9860    7.2790   -7.0050 C   0  0  0  0  0  0  0  0  0  0  0  0
   23.8540    9.9860   -7.5000 C   0  0  0  0  0  0  0  0  0  0  0  0
   23.2140   10.2440   -6.2950 C   0  0  0  0  0  0  0  0  0  0  0  0
   23.4990    9.4710   -5.1760 C   0  0  0  0  0  0  0  0  0  0  0  0
   24.4260    8.4370   -5.2650 C   0  0  0  0  0  0  0  0  0  0  0  0
   22.8050    9.7530   -3.8660 C   0  0  1  0  0  0  0  0  0  0  0  0
   21.9320   11.0170   -3.9190 C   0  0  1  0  0  0  0  0  0  0  0  0
   30.1900   12.5500  -13.3170 C   0  0  1  0  0  0  0  0  0  0  0  0
   28.9258    6.0398  -10.7899 H   0  0  0  0  0  0  0  0  0  0  0  0
   30.3931    7.2380  -12.3547 H   0  0  0  0  0  0  0  0  0  0  0  0
   27.0018    9.7923   -9.8887 H   0  0  0  0  0  0  0  0  0  0  0  0
   28.1040   11.8288  -11.3427 H   0  0  0  0  0  0  0  0  0  0  0  0
   26.4475    6.4600   -6.4338 H   0  0  0  0  0  0  0  0  0  0  0  0
   23.6282   10.5990   -8.3850 H   0  0  0  0  0  0  0  0  0  0  0  0
   22.4807   11.0611   -6.2262 H   0  0  0  0  0  0  0  0  0  0  0  0
   24.6519    7.8237   -4.3803 H   0  0  0  0  0  0  0  0  0  0  0  0
   22.1659    8.8939   -3.6139 H   0  0  0  0  0  0  0  0  0  0  0  0
   23.5829    9.9173   -3.1058 H   0  0  0  0  0  0  0  0  0  0  0  0
   21.7034   11.3479   -2.8952 H   0  0  0  0  0  0  0  0  0  0  0  0
   22.4729   11.8142   -4.4499 H   0  0  0  0  0  0  0  0  0  0  0  0
   20.9949   10.7934   -4.4499 H   0  0  0  0  0  0  0  0  0  0  0  0
   30.4335   13.2904  -12.5408 H   0  0  0  0  0  0  0  0  0  0  0  0
   31.0763   12.3702  -13.9432 H   0  0  0  0  0  0  0  0  0  0  0  0
   29.3700   12.9314  -13.9432 H   0  0  0  0  0  0  0  0  0  0  0  0
  5  1  1  0
  5 11  1  0
  1  2  2  0
  1  7  1  0
  2  3  1  0
  3  4  1  0
  4  8  2  0
  4  6  1  0
  6 10  1  0
  6  7  2  0
  8  9  1  0
  9 22  1  0
  9 10  2  0
 11 12  2  0
 11 15  1  0
 12 13  1  0
 13 16  1  0
 13 14  1  0
 14 15  2  0
 14 19  1  0
 16 17  2  0
 17 18  1  0
 18 19  2  0
 18 20  1  0
 20 21  1  0
  2 23  1  0
  3 24  1  0
  7 25  1  0
 10 26  1  0
 15 27  1  0
 16 28  1  0
 17 29  1  0
 19 30  1  0
 20 31  1  1
 20 32  1  0
 21 33  1  1
 21 34  1  0
 21 35  1  0
 22 36  1  1
 22 37  1  0
 22 38  1  0
M  END
>  <Pose ID>  (334)
347

>  <Score>  (334)
-5.887038707733154

>  <smiles>  (334)
CCc1ccn2nc(Oc3c[nH]c4nc(C)cc-4c3)cc2c1

$$$$

     RDKit          3D

 20 21  0  0  0  0  0  0  0  0999 V2000
   28.0070    9.7560  -11.4150 C   0  0  0  0  0  0  0  0  0  0  0  0
   28.8160    8.6260  -11.3870 C   0  0  0  0  0  0  0  0  0  0  0  0
   28.4520    7.4830  -10.6830 N   0  0  0  0  0  0  0  0  0  0  0  0
   26.7670    9.6910  -10.7660 C   0  0  0  0  0  0  0  0  0  0  0  0
   26.3880    8.5530  -10.0650 C   0  0  0  0  0  0  0  0  0  0  0  0
   27.2290    7.4470  -10.0240 C   0  0  0  0  0  0  0  0  0  0  0  0
   26.8880    6.4300   -9.3970 O   0  0  0  0  0  0  0  0  0  0  0  0
   30.0440    8.6340  -12.0390 N   0  0  0  0  0  0  0  0  0  0  0  0
   30.4620    9.7710  -12.7200 C   0  0  0  0  0  0  0  0  0  0  0  0
   29.6530   10.9010  -12.7500 C   0  0  0  0  0  0  0  0  0  0  0  0
   28.4210   10.8880  -12.0850 C   0  0  0  0  0  0  0  0  0  0  0  0
   27.5450   12.1150  -12.1020 C   0  0  1  0  0  0  0  0  0  0  0  0
   29.0836    6.6700  -10.6504 H   0  0  0  0  0  0  0  0  0  0  0  0
   26.0845   10.5524  -10.8121 H   0  0  0  0  0  0  0  0  0  0  0  0
   25.4209    8.5271   -9.5416 H   0  0  0  0  0  0  0  0  0  0  0  0
   31.4337    9.7768  -13.2356 H   0  0  0  0  0  0  0  0  0  0  0  0
   29.9789   11.8003  -13.2931 H   0  0  0  0  0  0  0  0  0  0  0  0
   27.3252   12.4229  -11.0691 H   0  0  0  0  0  0  0  0  0  0  0  0
   28.0663   12.9305  -12.6246 H   0  0  0  0  0  0  0  0  0  0  0  0
   26.6044   11.8868  -12.6246 H   0  0  0  0  0  0  0  0  0  0  0  0
  1 11  1  0
  1  2  2  0
  1  4  1  0
  2  8  1  0
  2  3  1  0
  3  6  1  0
  4  5  2  0
  5  6  1  0
  6  7  2  0
  8  9  2  0
  9 10  1  0
 10 11  2  0
 11 12  1  0
  3 13  1  0
  4 14  1  0
  5 15  1  0
  9 16  1  0
 10 17  1  0
 12 18  1  1
 12 19  1  0
 12 20  1  0
M  END
>  <Pose ID>  (335)
9

>  <Score>  (335)
-5.883296012878418

>  <smiles>  (335)
Cc1ccnc2[nH]c(=O)ccc12

$$$$

     RDKit          3D

 37 40  0  0  0  0  0  0  0  0999 V2000
   27.9800    7.8780  -10.3360 C   0  0  0  0  0  0  0  0  0  0  0  0
   28.9780    7.1410  -10.9640 C   0  0  0  0  0  0  0  0  0  0  0  0
   29.8640    7.7690  -11.8290 N   0  0  0  0  0  0  0  0  0  0  0  0
   29.7560    9.1350  -12.0680 C   0  0  0  0  0  0  0  0  0  0  0  0
   27.1390    7.0750   -9.4540 O   0  0  0  0  0  0  0  0  0  0  0  0
   28.7570    9.8730  -11.4400 C   0  0  0  0  0  0  0  0  0  0  0  0
   27.8720    9.2420  -10.5730 C   0  0  0  0  0  0  0  0  0  0  0  0
   30.4820    9.9550  -12.8510 N   0  0  0  0  0  0  0  0  0  0  0  0
   29.9720   11.2290  -12.7520 C   0  0  0  0  0  0  0  0  0  0  0  0
   28.9080   11.0090  -11.8500 C   0  0  0  0  0  0  0  0  0  0  0  0
   26.2690    7.6110   -8.4960 C   0  0  0  0  0  0  0  0  0  0  0  0
   25.4680    8.6680   -8.8930 N   0  0  0  0  0  0  0  0  0  0  0  0
   24.7460    9.0410   -7.8280 N   0  0  0  0  0  0  0  0  0  0  0  0
   25.0190    8.2470   -6.7220 C   0  0  0  0  0  0  0  0  0  0  0  0
   25.9420    7.3900   -7.1710 C   0  0  0  0  0  0  0  0  0  0  0  0
   23.8040   10.0600   -7.7370 C   0  0  0  0  0  0  0  0  0  0  0  0
   23.1370   10.2830   -6.5390 N   0  0  0  0  0  0  0  0  0  0  0  0
   23.4100    9.4880   -5.4310 C   0  0  0  0  0  0  0  0  0  0  0  0
   24.3520    8.4700   -5.5230 C   0  0  0  0  0  0  0  0  0  0  0  0
   30.4220   12.5050  -13.4210 C   0  0  1  0  0  0  0  0  0  0  0  0
   22.6840    9.7290   -4.1310 C   0  0  1  0  0  0  0  0  0  0  0  0
   21.1440    9.6710   -4.3050 C   0  0  1  0  0  0  0  0  0  0  0  0
   29.0655    6.0608  -10.7755 H   0  0  0  0  0  0  0  0  0  0  0  0
   30.6025    7.2224  -12.2945 H   0  0  0  0  0  0  0  0  0  0  0  0
   27.0841    9.8248  -10.0734 H   0  0  0  0  0  0  0  0  0  0  0  0
   28.2454   11.8275  -11.5322 H   0  0  0  0  0  0  0  0  0  0  0  0
   26.3912    6.5973   -6.5547 H   0  0  0  0  0  0  0  0  0  0  0  0
   23.5872   10.6890   -8.6130 H   0  0  0  0  0  0  0  0  0  0  0  0
   24.5696    7.8410   -4.6472 H   0  0  0  0  0  0  0  0  0  0  0  0
   30.6842   13.2485  -12.6539 H   0  0  0  0  0  0  0  0  0  0  0  0
   31.3019   12.2995  -14.0483 H   0  0  0  0  0  0  0  0  0  0  0  0
   29.6079   12.8969  -14.0483 H   0  0  0  0  0  0  0  0  0  0  0  0
   22.9886    8.9595   -3.4064 H   0  0  0  0  0  0  0  0  0  0  0  0
   22.9478   10.7364   -3.7767 H   0  0  0  0  0  0  0  0  0  0  0  0
   20.6636    9.6529   -3.3156 H   0  0  0  0  0  0  0  0  0  0  0  0
   20.8042   10.5570   -4.8614 H   0  0  0  0  0  0  0  0  0  0  0  0
   20.8718    8.7620   -4.8614 H   0  0  0  0  0  0  0  0  0  0  0  0
  5  1  1  0
  5 11  1  0
  1  2  2  0
  1  7  1  0
  2  3  1  0
  3  4  1  0
  4  8  2  0
  4  6  1  0
  6 10  1  0
  6  7  2  0
  8  9  1  0
  9 20  1  0
  9 10  2  0
 11 12  2  0
 11 15  1  0
 12 13  1  0
 13 16  1  0
 13 14  1  0
 14 15  2  0
 14 19  1  0
 16 17  2  0
 17 18  1  0
 18 19  2  0
 18 21  1  0
 21 22  1  0
  2 23  1  0
  3 24  1  0
  7 25  1  0
 10 26  1  0
 15 27  1  0
 16 28  1  0
 19 29  1  0
 20 30  1  1
 20 31  1  0
 20 32  1  0
 21 33  1  1
 21 34  1  0
 22 35  1  1
 22 36  1  0
 22 37  1  0
M  END
>  <Pose ID>  (336)
290

>  <Score>  (336)
-5.8827290534973145

>  <smiles>  (336)
CCc1cc2cc(Oc3c[nH]c4nc(C)cc-4c3)nn2cn1

$$$$

     RDKit          3D

 35 38  0  0  0  0  0  0  0  0999 V2000
   27.3130    7.8830  -10.1870 C   0  0  0  0  0  0  0  0  0  0  0  0
   28.4290    7.1400  -10.5370 C   0  0  0  0  0  0  0  0  0  0  0  0
   29.4150    7.7030  -11.3370 N   0  0  0  0  0  0  0  0  0  0  0  0
   26.5110    7.1390   -9.4090 N   0  0  0  0  0  0  0  0  0  0  0  0
   29.2860    9.0130  -11.7840 C   0  0  0  0  0  0  0  0  0  0  0  0
   28.1670    9.7570  -11.4310 C   0  0  0  0  0  0  0  0  0  0  0  0
   27.1800    9.1970  -10.6330 C   0  0  0  0  0  0  0  0  0  0  0  0
   30.0930    9.7650  -12.5510 N   0  0  0  0  0  0  0  0  0  0  0  0
   29.5600   10.9450  -12.7120 C   0  0  0  0  0  0  0  0  0  0  0  0
   28.3590   10.8800  -12.0180 C   0  0  0  0  0  0  0  0  0  0  0  0
   25.9140    7.6260   -8.2070 C   0  0  0  0  0  0  0  0  0  0  0  0
   25.2730    6.7180   -7.3710 N   0  0  0  0  0  0  0  0  0  0  0  0
   24.5790    7.1700   -6.2570 C   0  0  0  0  0  0  0  0  0  0  0  0
   24.5260    8.5310   -5.9760 C   0  0  0  0  0  0  0  0  0  0  0  0
   25.1640    9.4400   -6.8120 C   0  0  0  0  0  0  0  0  0  0  0  0
   25.8840    8.9820   -7.9120 C   0  0  0  0  0  0  0  0  0  0  0  0
   24.0070    6.3560   -5.5090 O   0  0  0  0  0  0  0  0  0  0  0  0
   29.9160   12.1100  -13.3810 C   0  0  0  0  0  0  0  0  0  0  0  0
   29.0680   13.2110  -13.3550 C   0  0  0  0  0  0  0  0  0  0  0  0
   27.8660   13.1470  -12.6610 C   0  0  0  0  0  0  0  0  0  0  0  0
   27.5120   11.9820  -11.9920 N   0  0  0  0  0  0  0  0  0  0  0  0
   25.0770   10.9190   -6.5280 C   0  0  1  0  0  0  0  0  0  0  0  0
   28.5340    6.1044  -10.1813 H   0  0  0  0  0  0  0  0  0  0  0  0
   30.2428    7.1492  -11.5994 H   0  0  0  0  0  0  0  0  0  0  0  0
   26.3166    6.1683   -9.6934 H   0  0  0  0  0  0  0  0  0  0  0  0
   26.2954    9.7879  -10.3531 H   0  0  0  0  0  0  0  0  0  0  0  0
   25.3132    5.7099   -7.5785 H   0  0  0  0  0  0  0  0  0  0  0  0
   23.9787    8.8885   -5.0913 H   0  0  0  0  0  0  0  0  0  0  0  0
   26.4294    9.6951   -8.5477 H   0  0  0  0  0  0  0  0  0  0  0  0
   30.8676   12.1607  -13.9304 H   0  0  0  0  0  0  0  0  0  0  0  0
   29.3487   14.1336  -13.8842 H   0  0  0  0  0  0  0  0  0  0  0  0
   27.1950   14.0184  -12.6413 H   0  0  0  0  0  0  0  0  0  0  0  0
   25.0673   11.0836   -5.4404 H   0  0  0  0  0  0  0  0  0  0  0  0
   25.9467   11.4287   -6.9682 H   0  0  0  0  0  0  0  0  0  0  0  0
   24.1535   11.3232   -6.9682 H   0  0  0  0  0  0  0  0  0  0  0  0
  1  7  1  0
  1  2  2  0
  1  4  1  0
  2  3  1  0
  3  5  1  0
  5  8  2  0
  5  6  1  0
  6 10  1  0
  6  7  2  0
  8  9  1  0
  9 18  1  0
  9 10  2  0
 10 21  1  0
 18 19  2  0
 19 20  1  0
 20 21  2  0
  4 11  1  0
 11 16  2  0
 11 12  1  0
 12 13  1  0
 13 14  1  0
 13 17  2  0
 14 15  2  0
 15 16  1  0
 15 22  1  0
  2 23  1  0
  3 24  1  0
  4 25  1  0
  7 26  1  0
 12 27  1  0
 14 28  1  0
 16 29  1  0
 18 30  1  0
 19 31  1  0
 20 32  1  0
 22 33  1  1
 22 34  1  0
 22 35  1  0
M  END
>  <Pose ID>  (337)
96

>  <Score>  (337)
-5.881179332733154

>  <smiles>  (337)
Cc1cc(Nc2c[nH]c3nc4cccnc4c-3c2)[nH]c(=O)c1

$$$$

     RDKit          3D

 39 41  0  0  0  0  0  0  0  0999 V2000
   28.9870    9.5330  -11.8000 C   0  0  0  0  0  0  0  0  0  0  0  0
   29.6010    8.3160  -11.5700 C   0  0  0  0  0  0  0  0  0  0  0  0
   29.0100    7.3950  -10.7140 N   0  0  0  0  0  0  0  0  0  0  0  0
   27.8190    7.7050  -10.0720 C   0  0  0  0  0  0  0  0  0  0  0  0
   27.8020    9.8600  -11.1410 C   0  0  0  0  0  0  0  0  0  0  0  0
   27.2140    8.9360  -10.2850 C   0  0  0  0  0  0  0  0  0  0  0  0
   27.0700    6.9870   -9.2100 N   0  0  0  0  0  0  0  0  0  0  0  0
   25.9740    7.7390   -8.8480 C   0  0  0  0  0  0  0  0  0  0  0  0
   26.2130    8.9170   -9.5890 C   0  0  0  0  0  0  0  0  0  0  0  0
   24.8750    7.5940   -8.0370 N   0  0  0  0  0  0  0  0  0  0  0  0
   24.6650    8.3100   -6.8500 C   0  0  0  0  0  0  0  0  0  0  0  0
   24.0270    9.5440   -6.9070 C   0  0  0  0  0  0  0  0  0  0  0  0
   23.8090   10.2680   -5.7420 C   0  0  0  0  0  0  0  0  0  0  0  0
   24.2330    9.7610   -4.5190 C   0  0  0  0  0  0  0  0  0  0  0  0
   24.8740    8.5280   -4.4620 N   0  0  0  0  0  0  0  0  0  0  0  0
   25.0890    7.8050   -5.6300 C   0  0  0  0  0  0  0  0  0  0  0  0
   23.1660   11.4400   -6.0540 N   0  0  0  0  0  0  0  0  0  0  0  0
   23.7660   12.7300   -5.7820 C   0  0  0  0  0  0  0  0  0  0  0  0
   24.8980   12.8270   -5.4200 O   0  0  0  0  0  0  0  0  0  0  0  0
   22.8880   13.8520   -6.2030 C   0  0  1  0  0  0  0  0  0  0  0  0
   22.0270   14.4860   -5.0560 C   0  0  1  0  0  0  0  0  0  0  0  0
   29.6020   10.5140  -12.7670 C   0  0  1  0  0  0  0  0  0  0  0  0
   30.5548    8.0775  -12.0633 H   0  0  0  0  0  0  0  0  0  0  0  0
   29.4565    6.4804  -10.5555 H   0  0  0  0  0  0  0  0  0  0  0  0
   27.3353   10.8437  -11.2978 H   0  0  0  0  0  0  0  0  0  0  0  0
   25.5286    9.7768   -9.5407 H   0  0  0  0  0  0  0  0  0  0  0  0
   24.1561    6.9128   -8.3201 H   0  0  0  0  0  0  0  0  0  0  0  0
   23.6948    9.9470   -7.8751 H   0  0  0  0  0  0  0  0  0  0  0  0
   24.0615   10.3350   -3.5964 H   0  0  0  0  0  0  0  0  0  0  0  0
   25.5966    6.8301   -5.5863 H   0  0  0  0  0  0  0  0  0  0  0  0
   22.2346   11.4012   -6.4920 H   0  0  0  0  0  0  0  0  0  0  0  0
   23.5242   14.6420   -6.6286 H   0  0  0  0  0  0  0  0  0  0  0  0
   22.1743   13.4294   -6.9255 H   0  0  0  0  0  0  0  0  0  0  0  0
   22.4365   14.1844   -4.0806 H   0  0  0  0  0  0  0  0  0  0  0  0
   22.0528   15.5824   -5.1414 H   0  0  0  0  0  0  0  0  0  0  0  0
   20.9877   14.1359   -5.1414 H   0  0  0  0  0  0  0  0  0  0  0  0
   30.1046   11.3157  -12.2060 H   0  0  0  0  0  0  0  0  0  0  0  0
   30.3359    9.9938  -13.4000 H   0  0  0  0  0  0  0  0  0  0  0  0
   28.8140   10.9479  -13.4000 H   0  0  0  0  0  0  0  0  0  0  0  0
 10  8  1  0
 10 11  1  0
  1 22  1  0
  1  2  2  0
  1  5  1  0
  2  3  1  0
  3  4  1  0
  4  6  1  0
  4  7  2  0
  5  6  2  0
  6  9  1  0
  7  8  1  0
  8  9  2  0
 11 12  2  0
 11 16  1  0
 12 13  1  0
 13 17  1  0
 13 14  2  0
 14 15  1  0
 15 16  2  0
 17 18  1  0
 18 20  1  0
 18 19  2  0
 20 21  1  0
  2 23  1  0
  3 24  1  0
  5 25  1  0
  9 26  1  0
 10 27  1  0
 12 28  1  0
 14 29  1  0
 16 30  1  0
 17 31  1  0
 20 32  1  6
 20 33  1  0
 21 34  1  1
 21 35  1  0
 21 36  1  0
 22 37  1  1
 22 38  1  0
 22 39  1  0
M  END
>  <Pose ID>  (338)
226

>  <Score>  (338)
-5.879823684692383

>  <smiles>  (338)
CCC(=O)Nc1cncc(Nc2cc3cc(C)c[nH]c-3n2)c1

$$$$

     RDKit          3D

 28 31  0  0  0  0  0  0  0  0999 V2000
   27.0390    8.4650   -9.5140 C   0  0  0  0  0  0  0  0  0  0  0  0
   27.1890    7.3650   -8.6760 N   0  0  0  0  0  0  0  0  0  0  0  0
   26.3330    7.1950   -7.5930 C   0  0  0  0  0  0  0  0  0  0  0  0
   25.3290    8.1260   -7.3480 C   0  0  0  0  0  0  0  0  0  0  0  0
   25.1780    9.2240   -8.1870 N   0  0  0  0  0  0  0  0  0  0  0  0
   26.0350    9.3950   -9.2680 C   0  0  0  0  0  0  0  0  0  0  0  0
   24.3880    8.1140   -6.3240 C   0  0  0  0  0  0  0  0  0  0  0  0
   24.3270    7.0760   -5.4010 C   0  0  0  0  0  0  0  0  0  0  0  0
   23.4750    9.1590   -6.2560 C   0  0  0  0  0  0  0  0  0  0  0  0
   23.3550    7.0830   -4.4110 N   0  0  0  0  0  0  0  0  0  0  0  0
   22.4400    8.1280   -4.3420 C   0  0  0  0  0  0  0  0  0  0  0  0
   23.9300    9.9600   -7.4960 N   0  0  0  0  0  0  0  0  0  0  0  0
   22.5000    9.1660   -5.2650 C   0  0  0  0  0  0  0  0  0  0  0  0
   27.9050    8.6360  -10.6080 C   0  0  0  0  0  0  0  0  0  0  0  0
   28.7630    9.7240  -10.7250 O   0  0  0  0  0  0  0  0  0  0  0  0
   28.0440    7.8130  -11.6890 N   0  0  0  0  0  0  0  0  0  0  0  0
   29.3950    9.4950  -11.9240 C   0  0  0  0  0  0  0  0  0  0  0  0
   28.9620    8.3280  -12.5360 C   0  0  0  0  0  0  0  0  0  0  0  0
   30.4430   10.4110  -12.5080 C   0  0  1  0  0  0  0  0  0  0  0  0
   26.4499    6.3247   -6.9305 H   0  0  0  0  0  0  0  0  0  0  0  0
   25.9189   10.2664   -9.9291 H   0  0  0  0  0  0  0  0  0  0  0  0
   25.0499    6.2487   -5.4557 H   0  0  0  0  0  0  0  0  0  0  0  0
   21.6690    8.1333   -3.5574 H   0  0  0  0  0  0  0  0  0  0  0  0
   21.7762    9.9926   -5.2112 H   0  0  0  0  0  0  0  0  0  0  0  0
   29.2933    7.9130  -13.4993 H   0  0  0  0  0  0  0  0  0  0  0  0
   30.9997   10.8976  -11.6935 H   0  0  0  0  0  0  0  0  0  0  0  0
   31.1376    9.8252  -13.1280 H   0  0  0  0  0  0  0  0  0  0  0  0
   29.9555   11.1777  -13.1280 H   0  0  0  0  0  0  0  0  0  0  0  0
  1 14  1  0
  1  6  2  0
  1  2  1  0
  2  3  2  0
  3  4  1  0
  4  5  1  0
  4  7  2  0
  5  6  1  0
  5 12  1  0
  7  9  1  0
  7  8  1  0
  8 10  2  0
  9 12  2  0
  9 13  1  0
 10 11  1  0
 11 13  2  0
 14 16  2  0
 14 15  1  0
 15 17  1  0
 16 18  1  0
 17 18  2  0
 17 19  1  0
  3 20  1  0
  6 21  1  0
  8 22  1  0
 11 23  1  0
 13 24  1  0
 18 25  1  0
 19 26  1  1
 19 27  1  0
 19 28  1  0
M  END
>  <Pose ID>  (339)
57

>  <Score>  (339)
-5.873748779296875

>  <smiles>  (339)
Cc1cnc(-c2cn3nc4ccncc4c3cn2)o1

$$$$

     RDKit          3D

 30 33  0  0  0  0  0  0  0  0999 V2000
   27.3670    7.9850  -10.1590 C   0  0  0  0  0  0  0  0  0  0  0  0
   28.4540    7.1990  -10.5070 C   0  0  0  0  0  0  0  0  0  0  0  0
   29.4390    7.7070  -11.3450 N   0  0  0  0  0  0  0  0  0  0  0  0
   26.5620    7.2880   -9.3410 N   0  0  0  0  0  0  0  0  0  0  0  0
   29.3350    9.0040  -11.8330 C   0  0  0  0  0  0  0  0  0  0  0  0
   28.2450    9.7910  -11.4840 C   0  0  0  0  0  0  0  0  0  0  0  0
   27.2610    9.2850  -10.6470 C   0  0  0  0  0  0  0  0  0  0  0  0
   30.1470    9.7060  -12.6440 N   0  0  0  0  0  0  0  0  0  0  0  0
   29.6040   10.9550  -12.8370 C   0  0  0  0  0  0  0  0  0  0  0  0
   28.4280   10.8460  -12.0650 C   0  0  0  0  0  0  0  0  0  0  0  0
   26.0040    7.8340   -8.1450 C   0  0  0  0  0  0  0  0  0  0  0  0
   25.3580    6.9730   -7.2660 N   0  0  0  0  0  0  0  0  0  0  0  0
   24.7000    7.4810   -6.1520 C   0  0  0  0  0  0  0  0  0  0  0  0
   24.6880    8.8510   -5.9180 C   0  0  0  0  0  0  0  0  0  0  0  0
   25.3340    9.7130   -6.7970 C   0  0  0  0  0  0  0  0  0  0  0  0
   26.0180    9.1980   -7.8950 C   0  0  0  0  0  0  0  0  0  0  0  0
   23.9880    6.8360   -5.1360 C   0  0  0  0  0  0  0  0  0  0  0  0
   23.6780    7.8180   -4.2210 N   0  0  0  0  0  0  0  0  0  0  0  0
   24.0840    8.9980   -4.5610 C   0  0  0  0  0  0  0  0  0  0  0  0
   28.5370    6.1728  -10.1197 H   0  0  0  0  0  0  0  0  0  0  0  0
   30.2463    7.1223  -11.6045 H   0  0  0  0  0  0  0  0  0  0  0  0
   26.3363    6.3138   -9.5876 H   0  0  0  0  0  0  0  0  0  0  0  0
   26.3989    9.9093  -10.3694 H   0  0  0  0  0  0  0  0  0  0  0  0
   29.9813   11.8024  -13.4282 H   0  0  0  0  0  0  0  0  0  0  0  0
   27.7094   11.6756  -11.9912 H   0  0  0  0  0  0  0  0  0  0  0  0
   25.3668    5.9579   -7.4401 H   0  0  0  0  0  0  0  0  0  0  0  0
   25.3048   10.7991   -6.6254 H   0  0  0  0  0  0  0  0  0  0  0  0
   26.5700    9.8737   -8.5648 H   0  0  0  0  0  0  0  0  0  0  0  0
   23.7296    5.7683   -5.0793 H   0  0  0  0  0  0  0  0  0  0  0  0
   24.0010    9.9221   -3.9702 H   0  0  0  0  0  0  0  0  0  0  0  0
  4  1  1  0
  4 11  1  0
  1  7  1  0
  1  2  2  0
  2  3  1  0
  3  5  1  0
  5  8  2  0
  5  6  1  0
  6 10  1  0
  6  7  2  0
  8  9  1  0
  9 10  2  0
 11 16  2  0
 11 12  1  0
 12 13  1  0
 13 14  1  0
 13 17  2  0
 14 15  2  0
 14 19  1  0
 15 16  1  0
 17 18  1  0
 18 19  2  0
  2 20  1  0
  3 21  1  0
  4 22  1  0
  7 23  1  0
  9 24  1  0
 10 25  1  0
 12 26  1  0
 15 27  1  0
 16 28  1  0
 17 29  1  0
 19 30  1  0
M  END
>  <Pose ID>  (340)
36

>  <Score>  (340)
-5.868896007537842

>  <smiles>  (340)
c1cc2cc(Nc3ccc4cncc-4[nH]3)c[nH]c-2n1

$$$$

     RDKit          3D

 34 37  0  0  0  0  0  0  0  0999 V2000
   27.9170    7.8240  -10.3130 C   0  0  0  0  0  0  0  0  0  0  0  0
   28.9050    7.1160  -10.9880 C   0  0  0  0  0  0  0  0  0  0  0  0
   29.7570    7.7770  -11.8630 N   0  0  0  0  0  0  0  0  0  0  0  0
   29.6260    9.1470  -12.0630 C   0  0  0  0  0  0  0  0  0  0  0  0
   27.1120    6.9870   -9.4270 O   0  0  0  0  0  0  0  0  0  0  0  0
   28.6360    9.8550  -11.3880 C   0  0  0  0  0  0  0  0  0  0  0  0
   27.7850    9.1920  -10.5120 C   0  0  0  0  0  0  0  0  0  0  0  0
   30.3180    9.9960  -12.8470 N   0  0  0  0  0  0  0  0  0  0  0  0
   29.7950   11.2600  -12.7000 C   0  0  0  0  0  0  0  0  0  0  0  0
   28.7610   11.0040  -11.7730 C   0  0  0  0  0  0  0  0  0  0  0  0
   26.2650    7.4880   -8.4310 C   0  0  0  0  0  0  0  0  0  0  0  0
   25.4390    8.5440   -8.7770 N   0  0  0  0  0  0  0  0  0  0  0  0
   24.7450    8.8810   -7.6820 N   0  0  0  0  0  0  0  0  0  0  0  0
   25.0600    8.0630   -6.6060 C   0  0  0  0  0  0  0  0  0  0  0  0
   25.9800    7.2300   -7.1030 C   0  0  0  0  0  0  0  0  0  0  0  0
   23.7930    9.8850   -7.5380 C   0  0  0  0  0  0  0  0  0  0  0  0
   23.1590   10.0700   -6.3150 N   0  0  0  0  0  0  0  0  0  0  0  0
   23.4750    9.2510   -5.2370 C   0  0  0  0  0  0  0  0  0  0  0  0
   24.4260    8.2480   -5.3820 C   0  0  0  0  0  0  0  0  0  0  0  0
   30.2090   12.5580  -13.3490 C   0  0  1  0  0  0  0  0  0  0  0  0
   27.8530   12.1030  -11.2810 C   0  0  1  0  0  0  0  0  0  0  0  0
   29.0117    6.0328  -10.8290 H   0  0  0  0  0  0  0  0  0  0  0  0
   30.4872    7.2517  -12.3647 H   0  0  0  0  0  0  0  0  0  0  0  0
   27.0052    9.7520   -9.9751 H   0  0  0  0  0  0  0  0  0  0  0  0
   26.4572    6.4284   -6.5201 H   0  0  0  0  0  0  0  0  0  0  0  0
   23.5421   10.5321   -8.3914 H   0  0  0  0  0  0  0  0  0  0  0  0
   22.9724    9.3968   -4.2695 H   0  0  0  0  0  0  0  0  0  0  0  0
   24.6772    7.6006   -4.5289 H   0  0  0  0  0  0  0  0  0  0  0  0
   30.4451   13.2983  -12.5704 H   0  0  0  0  0  0  0  0  0  0  0  0
   31.0975   12.3880  -13.9748 H   0  0  0  0  0  0  0  0  0  0  0  0
   29.3862   12.9338  -13.9748 H   0  0  0  0  0  0  0  0  0  0  0  0
   27.8477   12.1094  -10.1810 H   0  0  0  0  0  0  0  0  0  0  0  0
   28.2169   13.0727  -11.6516 H   0  0  0  0  0  0  0  0  0  0  0  0
   26.8321   11.9286  -11.6516 H   0  0  0  0  0  0  0  0  0  0  0  0
  1  2  2  0
  1  7  1  0
  1  5  1  0
  2  3  1  0
  3  4  1  0
  4  8  2  0
  4  6  1  0
  6 10  1  0
  6  7  2  0
  8  9  1  0
  9 20  1  0
  9 10  2  0
 10 21  1  0
  5 11  1  0
 11 12  2  0
 11 15  1  0
 12 13  1  0
 13 16  1  0
 13 14  1  0
 14 15  2  0
 14 19  1  0
 16 17  2  0
 17 18  1  0
 18 19  2  0
  2 22  1  0
  3 23  1  0
  7 24  1  0
 15 25  1  0
 16 26  1  0
 18 27  1  0
 19 28  1  0
 20 29  1  1
 20 30  1  0
 20 31  1  0
 21 32  1  1
 21 33  1  0
 21 34  1  0
M  END
>  <Pose ID>  (341)
280

>  <Score>  (341)
-5.867063522338867

>  <smiles>  (341)
Cc1nc2[nH]cc(Oc3cc4ccncn4n3)cc-2c1C

$$$$

     RDKit          3D

 36 39  0  0  0  0  0  0  0  0999 V2000
   27.9830    7.8600  -10.4090 C   0  0  0  0  0  0  0  0  0  0  0  0
   28.8840    7.1280  -11.1700 C   0  0  0  0  0  0  0  0  0  0  0  0
   29.7310    7.7750  -12.0610 N   0  0  0  0  0  0  0  0  0  0  0  0
   29.6790    9.1580  -12.1910 C   0  0  0  0  0  0  0  0  0  0  0  0
   27.1720    7.0350   -9.5180 O   0  0  0  0  0  0  0  0  0  0  0  0
   28.7760    9.8940  -11.4290 C   0  0  0  0  0  0  0  0  0  0  0  0
   27.9300    9.2440  -10.5380 C   0  0  0  0  0  0  0  0  0  0  0  0
   30.3830   10.0000  -12.9710 N   0  0  0  0  0  0  0  0  0  0  0  0
   29.9530   11.2880  -12.7360 C   0  0  0  0  0  0  0  0  0  0  0  0
   28.9550   11.0480  -11.7660 C   0  0  0  0  0  0  0  0  0  0  0  0
   26.4140    7.5370   -8.4550 C   0  0  0  0  0  0  0  0  0  0  0  0
   25.6430    8.6610   -8.7040 N   0  0  0  0  0  0  0  0  0  0  0  0
   25.0050    9.0080   -7.5290 N   0  0  0  0  0  0  0  0  0  0  0  0
   25.3520    8.1280   -6.5800 C   0  0  0  0  0  0  0  0  0  0  0  0
   26.1830    7.2320   -7.1230 C   0  0  0  0  0  0  0  0  0  0  0  0
   24.1680   10.0610   -7.3900 C   0  0  0  0  0  0  0  0  0  0  0  0
   24.0310   11.0480   -8.3580 C   0  0  0  0  0  0  0  0  0  0  0  0
   23.6270   10.2500   -6.1230 C   0  0  0  0  0  0  0  0  0  0  0  0
   22.9520   11.4270   -5.8250 C   0  0  0  0  0  0  0  0  0  0  0  0
   23.3550   12.2260   -8.0590 C   0  0  0  0  0  0  0  0  0  0  0  0
   22.8480   12.4210   -6.7650 N   0  0  0  0  0  0  0  0  0  0  0  0
   23.2010   13.1000   -8.9310 O   0  0  0  0  0  0  0  0  0  0  0  0
   30.4170   12.5870  -13.3450 C   0  0  1  0  0  0  0  0  0  0  0  0
   28.9274    6.0337  -11.0674 H   0  0  0  0  0  0  0  0  0  0  0  0
   30.3979    7.2296  -12.6256 H   0  0  0  0  0  0  0  0  0  0  0  0
   27.2175    9.8250   -9.9340 H   0  0  0  0  0  0  0  0  0  0  0  0
   28.3652   11.8699  -11.3341 H   0  0  0  0  0  0  0  0  0  0  0  0
   25.0118    8.1405   -5.5340 H   0  0  0  0  0  0  0  0  0  0  0  0
   26.6205    6.3756   -6.5890 H   0  0  0  0  0  0  0  0  0  0  0  0
   24.4572   10.8978   -9.3609 H   0  0  0  0  0  0  0  0  0  0  0  0
   23.7335    9.4678   -5.3570 H   0  0  0  0  0  0  0  0  0  0  0  0
   22.4992   11.5626   -4.8317 H   0  0  0  0  0  0  0  0  0  0  0  0
   22.3962   13.3136   -6.5201 H   0  0  0  0  0  0  0  0  0  0  0  0
   30.6707   13.2973  -12.5444 H   0  0  0  0  0  0  0  0  0  0  0  0
   31.3052   12.4035  -13.9675 H   0  0  0  0  0  0  0  0  0  0  0  0
   29.6136   13.0078  -13.9675 H   0  0  0  0  0  0  0  0  0  0  0  0
 11  5  1  0
 11 12  2  0
 11 15  1  0
 12 13  1  0
 13 16  1  0
 13 14  1  0
 14 15  2  0
 16 17  2  0
 16 18  1  0
 17 20  1  0
 18 19  2  0
 19 21  1  0
 20 22  2  0
 20 21  1  0
  5  1  1  0
  1  2  2  0
  1  7  1  0
  2  3  1  0
  3  4  1  0
  4  8  2  0
  4  6  1  0
  6 10  1  0
  6  7  2  0
  8  9  1  0
  9 23  1  0
  9 10  2  0
  2 24  1  0
  3 25  1  0
  7 26  1  0
 10 27  1  0
 14 28  1  0
 15 29  1  0
 17 30  1  0
 18 31  1  0
 19 32  1  0
 21 33  1  0
 23 34  1  1
 23 35  1  0
 23 36  1  0
M  END
>  <Pose ID>  (342)
415

>  <Score>  (342)
-5.86264181137085

>  <smiles>  (342)
Cc1cc2cc(Oc3ccn(-c4cc[nH]c(=O)c4)n3)c[nH]c-2n1

$$$$

     RDKit          3D

 40 43  0  0  0  0  0  0  0  0999 V2000
   27.3940    7.8780  -10.1710 C   0  0  0  0  0  0  0  0  0  0  0  0
   28.5520    7.1590  -10.4180 C   0  0  0  0  0  0  0  0  0  0  0  0
   29.5370    7.6880  -11.2400 N   0  0  0  0  0  0  0  0  0  0  0  0
   26.6030    7.1740   -9.3460 N   0  0  0  0  0  0  0  0  0  0  0  0
   29.3630    8.9410  -11.8160 C   0  0  0  0  0  0  0  0  0  0  0  0
   28.2030    9.6620  -11.5680 C   0  0  0  0  0  0  0  0  0  0  0  0
   27.2170    9.1350  -10.7450 C   0  0  0  0  0  0  0  0  0  0  0  0
   30.1620    9.6520  -12.6330 N   0  0  0  0  0  0  0  0  0  0  0  0
   29.5390   10.8420  -12.9300 C   0  0  0  0  0  0  0  0  0  0  0  0
   28.3360   10.6910  -12.2070 C   0  0  0  0  0  0  0  0  0  0  0  0
   25.9470    7.7480   -8.2140 C   0  0  0  0  0  0  0  0  0  0  0  0
   25.3230    6.8950   -7.3110 N   0  0  0  0  0  0  0  0  0  0  0  0
   24.5750    7.4180   -6.2640 C   0  0  0  0  0  0  0  0  0  0  0  0
   24.4510    8.7960   -6.1190 C   0  0  0  0  0  0  0  0  0  0  0  0
   25.0760    9.6500   -7.0210 C   0  0  0  0  0  0  0  0  0  0  0  0
   25.8500    9.1220   -8.0520 C   0  0  0  0  0  0  0  0  0  0  0  0
   23.8620    6.7840   -5.2400 C   0  0  0  0  0  0  0  0  0  0  0  0
   23.4370    7.7940   -4.4060 N   0  0  0  0  0  0  0  0  0  0  0  0
   23.7710    8.9780   -4.8020 C   0  0  0  0  0  0  0  0  0  0  0  0
   23.5250   10.2800   -4.0820 C   0  0  1  0  0  0  0  0  0  0  0  0
   23.3170   11.4200   -4.9150 O   0  0  0  0  0  0  0  0  0  0  0  0
   23.1020   12.5800   -4.1890 C   0  0  1  0  0  0  0  0  0  0  0  0
   21.6420   13.0830   -4.4770 C   0  0  1  0  0  0  0  0  0  0  0  0
   28.6909    6.1676   -9.9621 H   0  0  0  0  0  0  0  0  0  0  0  0
   30.3972    7.1520  -11.4233 H   0  0  0  0  0  0  0  0  0  0  0  0
   26.4622    6.1719   -9.5383 H   0  0  0  0  0  0  0  0  0  0  0  0
   26.2992    9.7079  -10.5468 H   0  0  0  0  0  0  0  0  0  0  0  0
   29.8826   11.6784  -13.5565 H   0  0  0  0  0  0  0  0  0  0  0  0
   27.5553   11.4658  -12.2198 H   0  0  0  0  0  0  0  0  0  0  0  0
   25.4154    5.8748   -7.4184 H   0  0  0  0  0  0  0  0  0  0  0  0
   24.9596   10.7392   -6.9208 H   0  0  0  0  0  0  0  0  0  0  0  0
   26.3846    9.7954   -8.7381 H   0  0  0  0  0  0  0  0  0  0  0  0
   23.6794    5.7053   -5.1254 H   0  0  0  0  0  0  0  0  0  0  0  0
   22.6317   10.1542   -3.4526 H   0  0  0  0  0  0  0  0  0  0  0  0
   24.4451   10.4872   -3.5159 H   0  0  0  0  0  0  0  0  0  0  0  0
   23.2183   12.3728   -3.1150 H   0  0  0  0  0  0  0  0  0  0  0  0
   23.8312   13.3496   -4.4823 H   0  0  0  0  0  0  0  0  0  0  0  0
   21.1214   13.2623   -3.5247 H   0  0  0  0  0  0  0  0  0  0  0  0
   21.6836   14.0186   -5.0540 H   0  0  0  0  0  0  0  0  0  0  0  0
   21.0985   12.3203   -5.0540 H   0  0  0  0  0  0  0  0  0  0  0  0
 11  4  1  0
 11 16  2  0
 11 12  1  0
 12 13  1  0
 13 14  1  0
 13 17  2  0
 14 15  2  0
 14 19  1  0
 15 16  1  0
 17 18  1  0
 18 19  2  0
 19 20  1  0
  4  1  1  0
  1  7  1  0
  1  2  2  0
  2  3  1  0
  3  5  1  0
  5  8  2  0
  5  6  1  0
  6 10  1  0
  6  7  2  0
  8  9  1  0
  9 10  2  0
 20 21  1  0
 21 22  1  0
 22 23  1  0
  2 24  1  0
  3 25  1  0
  4 26  1  0
  7 27  1  0
  9 28  1  0
 10 29  1  0
 12 30  1  0
 15 31  1  0
 16 32  1  0
 17 33  1  0
 20 34  1  1
 20 35  1  0
 22 36  1  1
 22 37  1  0
 23 38  1  1
 23 39  1  0
 23 40  1  0
M  END
>  <Pose ID>  (343)
74

>  <Score>  (343)
-5.860032558441162

>  <smiles>  (343)
CCOCc1ncc2[nH]c(Nc3c[nH]c4nccc-4c3)ccc1-2

$$$$

     RDKit          3D

 18 19  0  0  0  0  0  0  0  0999 V2000
   28.6550    9.6960  -12.0400 C   0  0  0  0  0  0  0  0  0  0  0  0
   29.2720    8.4620  -11.9930 C   0  0  0  0  0  0  0  0  0  0  0  0
   28.8410    7.5060  -11.0810 N   0  0  0  0  0  0  0  0  0  0  0  0
   27.8050    7.7980  -10.2030 C   0  0  0  0  0  0  0  0  0  0  0  0
   27.6290   10.0060  -11.1480 C   0  0  0  0  0  0  0  0  0  0  0  0
   27.1990    9.0490  -10.2370 C   0  0  0  0  0  0  0  0  0  0  0  0
   27.2240    7.0520   -9.2480 N   0  0  0  0  0  0  0  0  0  0  0  0
   26.2370    7.7970   -8.6410 C   0  0  0  0  0  0  0  0  0  0  0  0
   26.3540    9.0070   -9.3600 C   0  0  0  0  0  0  0  0  0  0  0  0
   25.2960    7.4250   -7.5220 C   0  0  1  0  0  0  0  0  0  0  0  0
   28.9746   10.4391  -12.7855 H   0  0  0  0  0  0  0  0  0  0  0  0
   30.1037    8.2357  -12.6765 H   0  0  0  0  0  0  0  0  0  0  0  0
   29.2905    6.5796  -11.0561 H   0  0  0  0  0  0  0  0  0  0  0  0
   27.1628   11.0022  -11.1654 H   0  0  0  0  0  0  0  0  0  0  0  0
   25.7116    9.8720   -9.1384 H   0  0  0  0  0  0  0  0  0  0  0  0
   25.7827    7.6174   -6.5545 H   0  0  0  0  0  0  0  0  0  0  0  0
   24.3794    8.0284   -7.5978 H   0  0  0  0  0  0  0  0  0  0  0  0
   25.0398    6.3579   -7.5978 H   0  0  0  0  0  0  0  0  0  0  0  0
  1  2  2  0
  1  5  1  0
  2  3  1  0
  3  4  1  0
  4  6  1  0
  4  7  2  0
  5  6  2  0
  6  9  1  0
  7  8  1  0
  8  9  2  0
  8 10  1  0
  1 11  1  0
  2 12  1  0
  3 13  1  0
  5 14  1  0
  9 15  1  0
 10 16  1  1
 10 17  1  0
 10 18  1  0
M  END
>  <Pose ID>  (344)
190

>  <Score>  (344)
-5.858203411102295

>  <smiles>  (344)
Cc1cc2ccc[nH]c-2n1

$$$$

     RDKit          3D

 39 41  0  0  0  0  0  0  0  0999 V2000
   28.0750    8.0520  -10.0770 C   0  0  0  0  0  0  0  0  0  0  0  0
   27.5210    7.2100   -9.1200 N   0  0  0  0  0  0  0  0  0  0  0  0
   26.2720    7.4930   -8.5840 C   0  0  0  0  0  0  0  0  0  0  0  0
   25.5730    8.6210   -9.0060 C   0  0  0  0  0  0  0  0  0  0  0  0
   26.1240    9.4600   -9.9630 N   0  0  0  0  0  0  0  0  0  0  0  0
   27.3720    9.1790  -10.5040 C   0  0  0  0  0  0  0  0  0  0  0  0
   24.4500    8.8730   -8.5240 O   0  0  0  0  0  0  0  0  0  0  0  0
   25.5260    6.8260   -7.6440 N   0  0  0  0  0  0  0  0  0  0  0  0
   24.9750    7.4260   -6.3310 C   0  0  0  0  0  0  0  0  0  0  0  0
   25.2750    8.7670   -6.1250 C   0  0  0  0  0  0  0  0  0  0  0  0
   24.7890    9.4270   -5.0020 N   0  0  0  0  0  0  0  0  0  0  0  0
   24.0000    8.7410   -4.0840 C   0  0  0  0  0  0  0  0  0  0  0  0
   23.6990    7.4000   -4.2890 C   0  0  0  0  0  0  0  0  0  0  0  0
   24.1880    6.7450   -5.4120 C   0  0  0  0  0  0  0  0  0  0  0  0
   23.4800    9.4470   -2.8860 C   0  0  0  0  0  0  0  0  0  0  0  0
   24.0020    9.2960   -1.7570 O   0  0  0  0  0  0  0  0  0  0  0  0
   22.2970   10.3500   -2.9640 N   0  0  0  0  0  0  0  0  0  0  0  0
   22.0720   11.5200   -2.1020 C   0  0  1  0  0  0  0  0  0  0  0  0
   21.5790   12.6990   -2.9140 C   0  0  1  0  0  0  0  0  0  0  0  0
   20.7400   11.9510   -3.9960 C   0  0  1  0  0  0  0  0  0  0  0  0
   21.5240   10.5050   -4.1860 C   0  0  1  0  0  0  0  0  0  0  0  0
   27.9650   10.0890  -11.5500 C   0  0  1  0  0  0  0  0  0  0  0  0
   29.0669    7.8300  -10.4974 H   0  0  0  0  0  0  0  0  0  0  0  0
   25.6060   10.2943  -10.2736 H   0  0  0  0  0  0  0  0  0  0  0  0
   25.3144    5.8355   -7.8311 H   0  0  0  0  0  0  0  0  0  0  0  0
   25.8985    9.3077   -6.8522 H   0  0  0  0  0  0  0  0  0  0  0  0
   23.0746    6.8582   -3.5633 H   0  0  0  0  0  0  0  0  0  0  0  0
   23.9509    5.6831   -5.5738 H   0  0  0  0  0  0  0  0  0  0  0  0
   21.3201   11.2673   -1.3399 H   0  0  0  0  0  0  0  0  0  0  0  0
   23.0241   11.7943   -1.6242 H   0  0  0  0  0  0  0  0  0  0  0  0
   20.9568   13.3776   -2.3121 H   0  0  0  0  0  0  0  0  0  0  0  0
   22.3706   13.3516   -3.3109 H   0  0  0  0  0  0  0  0  0  0  0  0
   19.7079   11.7931   -3.6497 H   0  0  0  0  0  0  0  0  0  0  0  0
   20.6632   12.5165   -4.9364 H   0  0  0  0  0  0  0  0  0  0  0  0
   22.1857   10.5333   -5.0643 H   0  0  0  0  0  0  0  0  0  0  0  0
   20.8283    9.6691   -4.3512 H   0  0  0  0  0  0  0  0  0  0  0  0
   28.5020   10.9130  -11.0573 H   0  0  0  0  0  0  0  0  0  0  0  0
   28.6653    9.5186  -12.1779 H   0  0  0  0  0  0  0  0  0  0  0  0
   27.1603   10.4993  -12.1779 H   0  0  0  0  0  0  0  0  0  0  0  0
  9  8  1  0
  9 10  2  0
  9 14  1  0
 10 11  1  0
 11 12  2  0
 12 13  1  0
 12 15  1  0
 13 14  2  0
  1  6  2  0
  1  2  1  0
  2  3  2  0
  3  4  1  0
  3  8  1  0
  4  5  1  0
  4  7  2  0
  5  6  1  0
  6 22  1  0
 15 17  1  0
 15 16  2  0
 17 21  1  0
 17 18  1  0
 18 19  1  0
 19 20  1  0
 20 21  1  0
  1 23  1  0
  5 24  1  0
  8 25  1  0
 10 26  1  0
 13 27  1  0
 14 28  1  0
 18 29  1  1
 18 30  1  0
 19 31  1  1
 19 32  1  0
 20 33  1  1
 20 34  1  0
 21 35  1  6
 21 36  1  0
 22 37  1  1
 22 38  1  0
 22 39  1  0
M  END
>  <Pose ID>  (345)
43

>  <Score>  (345)
-5.855340003967285

>  <smiles>  (345)
Cc1cnc(Nc2ccc(C(=O)N3CCCC3)nc2)c(=O)[nH]1

$$$$

     RDKit          3D

 30 32  0  0  0  0  0  0  0  0999 V2000
   27.2920    7.9150  -10.1780 C   0  0  0  0  0  0  0  0  0  0  0  0
   28.3790    7.1470  -10.5690 C   0  0  0  0  0  0  0  0  0  0  0  0
   29.3700    7.7040  -11.3660 N   0  0  0  0  0  0  0  0  0  0  0  0
   26.4780    7.1700   -9.4120 N   0  0  0  0  0  0  0  0  0  0  0  0
   29.2760    9.0310  -11.7710 C   0  0  0  0  0  0  0  0  0  0  0  0
   28.1870    9.7980  -11.3770 C   0  0  0  0  0  0  0  0  0  0  0  0
   27.1950    9.2440  -10.5810 C   0  0  0  0  0  0  0  0  0  0  0  0
   30.0960    9.7800  -12.5280 N   0  0  0  0  0  0  0  0  0  0  0  0
   29.5580   11.0420  -12.6430 C   0  0  0  0  0  0  0  0  0  0  0  0
   28.3770   10.8890  -11.8860 C   0  0  0  0  0  0  0  0  0  0  0  0
   25.9160    7.6380   -8.1870 C   0  0  0  0  0  0  0  0  0  0  0  0
   25.2590    6.7250   -7.3690 N   0  0  0  0  0  0  0  0  0  0  0  0
   24.5960    7.1620   -6.2290 C   0  0  0  0  0  0  0  0  0  0  0  0
   24.5890    8.5150   -5.9060 C   0  0  0  0  0  0  0  0  0  0  0  0
   25.2450    9.4290   -6.7230 C   0  0  0  0  0  0  0  0  0  0  0  0
   25.9320    8.9830   -7.8480 C   0  0  0  0  0  0  0  0  0  0  0  0
   24.0100    6.3440   -5.4980 O   0  0  0  0  0  0  0  0  0  0  0  0
   30.0840   12.2520  -13.3750 C   0  0  1  0  0  0  0  0  0  0  0  0
   28.4557    6.0977  -10.2479 H   0  0  0  0  0  0  0  0  0  0  0  0
   30.1763    7.1333  -11.6578 H   0  0  0  0  0  0  0  0  0  0  0  0
   26.2487    6.2155   -9.7238 H   0  0  0  0  0  0  0  0  0  0  0  0
   26.3339    9.8533  -10.2691 H   0  0  0  0  0  0  0  0  0  0  0  0
   27.6617   11.7153  -11.7612 H   0  0  0  0  0  0  0  0  0  0  0  0
   25.2640    5.7233   -7.6088 H   0  0  0  0  0  0  0  0  0  0  0  0
   24.0642    8.8620   -5.0037 H   0  0  0  0  0  0  0  0  0  0  0  0
   25.2210   10.5017   -6.4807 H   0  0  0  0  0  0  0  0  0  0  0  0
   26.4892    9.6989   -8.4701 H   0  0  0  0  0  0  0  0  0  0  0  0
   30.4124   13.0075  -12.6460 H   0  0  0  0  0  0  0  0  0  0  0  0
   30.9352   11.9573  -14.0063 H   0  0  0  0  0  0  0  0  0  0  0  0
   29.2878   12.6734  -14.0063 H   0  0  0  0  0  0  0  0  0  0  0  0
  1  7  1  0
  1  2  2  0
  1  4  1  0
  2  3  1  0
  3  5  1  0
  5  8  2  0
  5  6  1  0
  6 10  1  0
  6  7  2  0
  8  9  1  0
  9 18  1  0
  9 10  2  0
  4 11  1  0
 11 16  2  0
 11 12  1  0
 12 13  1  0
 13 14  1  0
 13 17  2  0
 14 15  2  0
 15 16  1  0
  2 19  1  0
  3 20  1  0
  4 21  1  0
  7 22  1  0
 10 23  1  0
 12 24  1  0
 14 25  1  0
 15 26  1  0
 16 27  1  0
 18 28  1  1
 18 29  1  0
 18 30  1  0
M  END
>  <Pose ID>  (346)
93

>  <Score>  (346)
-5.8523359298706055

>  <smiles>  (346)
Cc1cc2cc(Nc3cccc(=O)[nH]3)c[nH]c-2n1

$$$$

     RDKit          3D

 40 43  0  0  0  0  0  0  0  0999 V2000
   27.3230    7.9700  -10.1710 C   0  0  0  0  0  0  0  0  0  0  0  0
   28.4070    7.1880  -10.5380 C   0  0  0  0  0  0  0  0  0  0  0  0
   29.3900    7.7090  -11.3700 N   0  0  0  0  0  0  0  0  0  0  0  0
   26.5200    7.2590   -9.3630 N   0  0  0  0  0  0  0  0  0  0  0  0
   29.2870    9.0150  -11.8340 C   0  0  0  0  0  0  0  0  0  0  0  0
   28.1990    9.7980  -11.4670 C   0  0  0  0  0  0  0  0  0  0  0  0
   27.2180    9.2780  -10.6350 C   0  0  0  0  0  0  0  0  0  0  0  0
   30.0980    9.7300  -12.6340 N   0  0  0  0  0  0  0  0  0  0  0  0
   29.5550   10.9830  -12.8040 C   0  0  0  0  0  0  0  0  0  0  0  0
   28.3830   10.8620  -12.0300 C   0  0  0  0  0  0  0  0  0  0  0  0
   25.9660    7.7850   -8.1560 C   0  0  0  0  0  0  0  0  0  0  0  0
   25.3220    6.9090   -7.2900 N   0  0  0  0  0  0  0  0  0  0  0  0
   24.6680    7.3980   -6.1660 C   0  0  0  0  0  0  0  0  0  0  0  0
   24.6600    8.7640   -5.9070 C   0  0  0  0  0  0  0  0  0  0  0  0
   25.3040    9.6400   -6.7710 C   0  0  0  0  0  0  0  0  0  0  0  0
   25.9840    9.1440   -7.8820 C   0  0  0  0  0  0  0  0  0  0  0  0
   23.9580    6.7360   -5.1590 C   0  0  0  0  0  0  0  0  0  0  0  0
   23.6540    7.7020   -4.2250 N   0  0  0  0  0  0  0  0  0  0  0  0
   24.0610    8.8880   -4.5450 C   0  0  0  0  0  0  0  0  0  0  0  0
   23.9620   10.0320   -3.7840 O   0  0  0  0  0  0  0  0  0  0  0  0
   23.2190   10.0950   -2.6230 C   0  0  2  0  0  0  0  0  0  0  0  0
   23.4610    8.6740   -1.9680 C   0  0  1  0  0  0  0  0  0  0  0  0
   21.7120   10.2690   -2.9370 C   0  0  1  0  0  0  0  0  0  0  0  0
   28.4889    6.1545  -10.1703 H   0  0  0  0  0  0  0  0  0  0  0  0
   30.1951    7.1274  -11.6430 H   0  0  0  0  0  0  0  0  0  0  0  0
   26.2930    6.2893   -9.6258 H   0  0  0  0  0  0  0  0  0  0  0  0
   26.3583    9.8987  -10.3424 H   0  0  0  0  0  0  0  0  0  0  0  0
   29.9307   11.8399  -13.3824 H   0  0  0  0  0  0  0  0  0  0  0  0
   27.6666   11.6917  -11.9387 H   0  0  0  0  0  0  0  0  0  0  0  0
   25.3296    5.8970   -7.4816 H   0  0  0  0  0  0  0  0  0  0  0  0
   25.2775   10.7228   -6.5790 H   0  0  0  0  0  0  0  0  0  0  0  0
   26.5349    9.8308   -8.5414 H   0  0  0  0  0  0  0  0  0  0  0  0
   23.6971    5.6681   -5.1208 H   0  0  0  0  0  0  0  0  0  0  0  0
   23.5056   10.9410   -1.9811 H   0  0  0  0  0  0  0  0  0  0  0  0
   23.4450    8.7679   -0.8721 H   0  0  0  0  0  0  0  0  0  0  0  0
   22.6677    7.9827   -2.2884 H   0  0  0  0  0  0  0  0  0  0  0  0
   24.4385    8.2842   -2.2884 H   0  0  0  0  0  0  0  0  0  0  0  0
   21.1465   10.3343   -1.9958 H   0  0  0  0  0  0  0  0  0  0  0  0
   21.5627   11.1903   -3.5191 H   0  0  0  0  0  0  0  0  0  0  0  0
   21.3567    9.4059   -3.5191 H   0  0  0  0  0  0  0  0  0  0  0  0
 11  4  1  0
 11 16  2  0
 11 12  1  0
 12 13  1  0
 13 14  1  0
 13 17  2  0
 14 15  2  0
 14 19  1  0
 15 16  1  0
 17 18  1  0
 18 19  2  0
 19 20  1  0
  4  1  1  0
  1  7  1  0
  1  2  2  0
  2  3  1  0
  3  5  1  0
  5  8  2  0
  5  6  1  0
  6 10  1  0
  6  7  2  0
  8  9  1  0
  9 10  2  0
 20 21  1  0
 21 23  1  0
 21 22  1  0
  2 24  1  0
  3 25  1  0
  4 26  1  0
  7 27  1  0
  9 28  1  0
 10 29  1  0
 12 30  1  0
 15 31  1  0
 16 32  1  0
 17 33  1  0
 21 34  1  1
 22 35  1  1
 22 36  1  0
 22 37  1  0
 23 38  1  1
 23 39  1  0
 23 40  1  0
M  END
>  <Pose ID>  (347)
69

>  <Score>  (347)
-5.849090576171875

>  <smiles>  (347)
CC(C)Oc1ncc2[nH]c(Nc3c[nH]c4nccc-4c3)ccc1-2

$$$$

     RDKit          3D

 37 40  0  0  0  0  0  0  0  0999 V2000
   27.3430    7.9960  -10.1530 C   0  0  0  0  0  0  0  0  0  0  0  0
   28.3980    7.1920  -10.5520 C   0  0  0  0  0  0  0  0  0  0  0  0
   29.3950    7.7070  -11.3710 N   0  0  0  0  0  0  0  0  0  0  0  0
   26.5190    7.2850   -9.3660 N   0  0  0  0  0  0  0  0  0  0  0  0
   29.3350    9.0320  -11.7890 C   0  0  0  0  0  0  0  0  0  0  0  0
   28.2760    9.8370  -11.3880 C   0  0  0  0  0  0  0  0  0  0  0  0
   27.2800    9.3230  -10.5710 C   0  0  0  0  0  0  0  0  0  0  0  0
   30.1660    9.7460  -12.5680 N   0  0  0  0  0  0  0  0  0  0  0  0
   29.6670   11.0230  -12.6900 C   0  0  0  0  0  0  0  0  0  0  0  0
   28.4940   10.9150  -11.9140 C   0  0  0  0  0  0  0  0  0  0  0  0
   25.9900    7.7870   -8.1380 C   0  0  0  0  0  0  0  0  0  0  0  0
   25.3190    6.9040   -7.3000 N   0  0  0  0  0  0  0  0  0  0  0  0
   24.6880    7.3740   -6.1560 C   0  0  0  0  0  0  0  0  0  0  0  0
   24.7270    8.7300   -5.8480 C   0  0  0  0  0  0  0  0  0  0  0  0
   25.3980    9.6140   -6.6870 C   0  0  0  0  0  0  0  0  0  0  0  0
   26.0550    9.1340   -7.8160 C   0  0  0  0  0  0  0  0  0  0  0  0
   23.9590    6.7020   -5.1690 C   0  0  0  0  0  0  0  0  0  0  0  0
   23.6920    7.6450   -4.1990 N   0  0  0  0  0  0  0  0  0  0  0  0
   24.1380    8.8260   -4.4800 C   0  0  0  0  0  0  0  0  0  0  0  0
   24.0810    9.9450   -3.6800 O   0  0  0  0  0  0  0  0  0  0  0  0
   23.4440    9.6940   -2.4120 C   0  0  1  0  0  0  0  0  0  0  0  0
   30.2210   12.2080  -13.4440 C   0  0  1  0  0  0  0  0  0  0  0  0
   28.4465    6.1444  -10.2200 H   0  0  0  0  0  0  0  0  0  0  0  0
   30.1782    7.1078  -11.6685 H   0  0  0  0  0  0  0  0  0  0  0  0
   26.2565    6.3339   -9.6617 H   0  0  0  0  0  0  0  0  0  0  0  0
   26.4425    9.9618  -10.2540 H   0  0  0  0  0  0  0  0  0  0  0  0
   27.8070   11.7650  -11.7891 H   0  0  0  0  0  0  0  0  0  0  0  0
   25.2899    5.9000   -7.5280 H   0  0  0  0  0  0  0  0  0  0  0  0
   25.4092   10.6899   -6.4585 H   0  0  0  0  0  0  0  0  0  0  0  0
   26.6267    9.8242   -8.4538 H   0  0  0  0  0  0  0  0  0  0  0  0
   23.6612    5.6431   -5.1671 H   0  0  0  0  0  0  0  0  0  0  0  0
   24.1309    9.9647   -1.5966 H   0  0  0  0  0  0  0  0  0  0  0  0
   22.5281   10.2985   -2.3357 H   0  0  0  0  0  0  0  0  0  0  0  0
   23.1867    8.6272   -2.3357 H   0  0  0  0  0  0  0  0  0  0  0  0
   30.5749   12.9649  -12.7286 H   0  0  0  0  0  0  0  0  0  0  0  0
   31.0595   11.8808  -14.0764 H   0  0  0  0  0  0  0  0  0  0  0  0
   29.4322   12.6416  -14.0764 H   0  0  0  0  0  0  0  0  0  0  0  0
  4  1  1  0
  4 11  1  0
  1  7  1  0
  1  2  2  0
  2  3  1  0
  3  5  1  0
  5  8  2  0
  5  6  1  0
  6 10  1  0
  6  7  2  0
  8  9  1  0
  9 22  1  0
  9 10  2  0
 11 16  2  0
 11 12  1  0
 12 13  1  0
 13 14  1  0
 13 17  2  0
 14 15  2  0
 14 19  1  0
 15 16  1  0
 17 18  1  0
 18 19  2  0
 19 20  1  0
 20 21  1  0
  2 23  1  0
  3 24  1  0
  4 25  1  0
  7 26  1  0
 10 27  1  0
 12 28  1  0
 15 29  1  0
 16 30  1  0
 17 31  1  0
 21 32  1  1
 21 33  1  0
 21 34  1  0
 22 35  1  1
 22 36  1  0
 22 37  1  0
M  END
>  <Pose ID>  (348)
64

>  <Score>  (348)
-5.8453049659729

>  <smiles>  (348)
COc1ncc2[nH]c(Nc3c[nH]c4nc(C)cc-4c3)ccc1-2

$$$$

     RDKit          3D

 36 39  0  0  0  0  0  0  0  0999 V2000
   26.5880    8.1300   -9.7020 C   0  0  0  0  0  0  0  0  0  0  0  0
   27.1870    7.0150  -10.2740 C   0  0  0  0  0  0  0  0  0  0  0  0
   28.2520    7.1720  -11.1520 N   0  0  0  0  0  0  0  0  0  0  0  0
   28.7190    8.4440  -11.4580 C   0  0  0  0  0  0  0  0  0  0  0  0
   25.4900    7.7950   -8.7980 O   0  0  0  0  0  0  0  0  0  0  0  0
   28.1170    9.5620  -10.8860 C   0  0  0  0  0  0  0  0  0  0  0  0
   27.0520    9.4020  -10.0070 C   0  0  0  0  0  0  0  0  0  0  0  0
   29.7190    8.8470  -12.2660 N   0  0  0  0  0  0  0  0  0  0  0  0
   29.7820   10.2210  -12.2380 C   0  0  0  0  0  0  0  0  0  0  0  0
   28.7270   10.5110  -11.3480 C   0  0  0  0  0  0  0  0  0  0  0  0
   24.9240    8.6920   -7.8840 C   0  0  0  0  0  0  0  0  0  0  0  0
   24.6310    9.9650   -8.3490 N   0  0  0  0  0  0  0  0  0  0  0  0
   24.1160   10.6920   -7.2950 N   0  0  0  0  0  0  0  0  0  0  0  0
   24.0700    9.9020   -6.2140 C   0  0  0  0  0  0  0  0  0  0  0  0
   24.5370    8.6980   -6.5550 C   0  0  0  0  0  0  0  0  0  0  0  0
   23.7500   11.8880   -7.3570 C   0  0  0  0  0  0  0  0  0  0  0  0
   23.1800   12.6290   -6.3270 N   0  0  0  0  0  0  0  0  0  0  0  0
   23.9570   12.4720   -8.6000 C   0  0  0  0  0  0  0  0  0  0  0  0
   23.5930   13.7950   -8.8170 C   0  0  0  0  0  0  0  0  0  0  0  0
   23.0250   14.5360   -7.7880 C   0  0  0  0  0  0  0  0  0  0  0  0
   22.8400   14.0150   -6.6090 C   0  0  0  0  0  0  0  0  0  0  0  0
   22.3610   14.7200   -5.7030 O   0  0  0  0  0  0  0  0  0  0  0  0
   24.6290    7.5140   -5.6240 C   0  0  1  0  0  0  0  0  0  0  0  0
   26.8180    6.0075  -10.0317 H   0  0  0  0  0  0  0  0  0  0  0  0
   28.6956    6.3449  -11.5763 H   0  0  0  0  0  0  0  0  0  0  0  0
   26.5768   10.2840   -9.5529 H   0  0  0  0  0  0  0  0  0  0  0  0
   30.4655   10.9039  -12.7638 H   0  0  0  0  0  0  0  0  0  0  0  0
   28.4665   11.5463  -11.0828 H   0  0  0  0  0  0  0  0  0  0  0  0
   23.7095   10.1947   -5.2168 H   0  0  0  0  0  0  0  0  0  0  0  0
   23.0055   12.2127   -5.4012 H   0  0  0  0  0  0  0  0  0  0  0  0
   24.4097   11.8863   -9.4136 H   0  0  0  0  0  0  0  0  0  0  0  0
   23.7543   14.2556   -9.8028 H   0  0  0  0  0  0  0  0  0  0  0  0
   22.7270   15.5787   -7.9721 H   0  0  0  0  0  0  0  0  0  0  0  0
   24.6018    7.8642   -4.5816 H   0  0  0  0  0  0  0  0  0  0  0  0
   23.7807    6.8378   -5.8059 H   0  0  0  0  0  0  0  0  0  0  0  0
   25.5716    6.9769   -5.8059 H   0  0  0  0  0  0  0  0  0  0  0  0
 11  5  1  0
 11 12  2  0
 11 15  1  0
 12 13  1  0
 13 16  1  0
 13 14  1  0
 14 15  2  0
 15 23  1  0
 16 18  2  0
 16 17  1  0
 17 21  1  0
 18 19  1  0
 19 20  2  0
 20 21  1  0
 21 22  2  0
  5  1  1  0
  1  2  2  0
  1  7  1  0
  2  3  1  0
  3  4  1  0
  4  8  2  0
  4  6  1  0
  6 10  1  0
  6  7  2  0
  8  9  1  0
  9 10  2  0
  2 24  1  0
  3 25  1  0
  7 26  1  0
  9 27  1  0
 10 28  1  0
 14 29  1  0
 17 30  1  0
 18 31  1  0
 19 32  1  0
 20 33  1  0
 23 34  1  1
 23 35  1  0
 23 36  1  0
M  END
>  <Pose ID>  (349)
239

>  <Score>  (349)
-5.845097064971924

>  <smiles>  (349)
Cc1cn(-c2cccc(=O)[nH]2)nc1Oc1c[nH]c2nccc-2c1

$$$$

     RDKit          3D

 36 39  0  0  0  0  0  0  0  0999 V2000
   27.3010    8.0790  -10.2370 C   0  0  0  0  0  0  0  0  0  0  0  0
   28.2340    7.2240  -10.8040 C   0  0  0  0  0  0  0  0  0  0  0  0
   29.2290    7.7300  -11.6300 N   0  0  0  0  0  0  0  0  0  0  0  0
   26.4520    7.3670   -9.4780 N   0  0  0  0  0  0  0  0  0  0  0  0
   29.2940    9.0950  -11.8850 C   0  0  0  0  0  0  0  0  0  0  0  0
   28.3600    9.9510  -11.3140 C   0  0  0  0  0  0  0  0  0  0  0  0
   27.3640    9.4470  -10.4910 C   0  0  0  0  0  0  0  0  0  0  0  0
   30.1520    9.8110  -12.6330 N   0  0  0  0  0  0  0  0  0  0  0  0
   29.7920   11.1380  -12.5690 C   0  0  0  0  0  0  0  0  0  0  0  0
   28.6650   11.0580  -11.7230 C   0  0  0  0  0  0  0  0  0  0  0  0
   26.0590    7.7620   -8.1650 C   0  0  0  0  0  0  0  0  0  0  0  0
   25.3450    6.8580   -7.3900 N   0  0  0  0  0  0  0  0  0  0  0  0
   24.8420    7.2460   -6.1530 C   0  0  0  0  0  0  0  0  0  0  0  0
   25.0540    8.5400   -5.6940 C   0  0  0  0  0  0  0  0  0  0  0  0
   25.7680    9.4470   -6.4700 C   0  0  0  0  0  0  0  0  0  0  0  0
   26.2940    9.0450   -7.6920 C   0  0  0  0  0  0  0  0  0  0  0  0
   24.2030    6.4360   -5.4580 O   0  0  0  0  0  0  0  0  0  0  0  0
   26.0910   10.7980   -6.2480 C   0  0  0  0  0  0  0  0  0  0  0  0
   26.8010   11.5550   -7.0610 N   0  0  0  0  0  0  0  0  0  0  0  0
   26.9380   12.8820   -6.5600 C   0  0  0  0  0  0  0  0  0  0  0  0
   25.8140   11.7610   -5.1610 C   0  0  0  0  0  0  0  0  0  0  0  0
   26.2620   12.9360   -5.3630 O   0  0  0  0  0  0  0  0  0  0  0  0
   30.4260   12.3420  -13.2210 C   0  0  1  0  0  0  0  0  0  0  0  0
   28.1859    6.1443  -10.5993 H   0  0  0  0  0  0  0  0  0  0  0  0
   29.9191    7.0937  -12.0539 H   0  0  0  0  0  0  0  0  0  0  0  0
   26.0659    6.4931   -9.8628 H   0  0  0  0  0  0  0  0  0  0  0  0
   26.6255   10.1261  -10.0399 H   0  0  0  0  0  0  0  0  0  0  0  0
   28.0888   11.9530  -11.4457 H   0  0  0  0  0  0  0  0  0  0  0  0
   25.1877    5.8991   -7.7316 H   0  0  0  0  0  0  0  0  0  0  0  0
   24.6566    8.8477   -4.7155 H   0  0  0  0  0  0  0  0  0  0  0  0
   26.8985    9.7462   -8.2860 H   0  0  0  0  0  0  0  0  0  0  0  0
   27.4823   13.7084   -7.0404 H   0  0  0  0  0  0  0  0  0  0  0  0
   25.2641   11.4844   -4.2493 H   0  0  0  0  0  0  0  0  0  0  0  0
   30.7889   13.0311  -12.4442 H   0  0  0  0  0  0  0  0  0  0  0  0
   31.2704   12.0179  -13.8471 H   0  0  0  0  0  0  0  0  0  0  0  0
   29.6810   12.8548  -13.8471 H   0  0  0  0  0  0  0  0  0  0  0  0
  4  1  1  0
  4 11  1  0
  1  2  2  0
  1  7  1  0
  2  3  1  0
  3  5  1  0
  5  8  2  0
  5  6  1  0
  6 10  1  0
  6  7  2  0
  8  9  1  0
  9 23  1  0
  9 10  2  0
 11 16  2  0
 11 12  1  0
 12 13  1  0
 13 14  1  0
 13 17  2  0
 14 15  2  0
 15 16  1  0
 15 18  1  0
 18 19  1  0
 18 21  2  0
 19 20  2  0
 20 22  1  0
 21 22  1  0
  2 24  1  0
  3 25  1  0
  4 26  1  0
  7 27  1  0
 10 28  1  0
 12 29  1  0
 14 30  1  0
 16 31  1  0
 20 32  1  0
 21 33  1  0
 23 34  1  1
 23 35  1  0
 23 36  1  0
M  END
>  <Pose ID>  (350)
126

>  <Score>  (350)
-5.845035552978516

>  <smiles>  (350)
Cc1cc2cc(Nc3cc(-c4cocn4)cc(=O)[nH]3)c[nH]c-2n1

$$$$

     RDKit          3D

 36 39  0  0  0  0  0  0  0  0999 V2000
   27.7080    7.7280  -10.1950 C   0  0  0  0  0  0  0  0  0  0  0  0
   28.5650    7.0560  -11.0580 C   0  0  0  0  0  0  0  0  0  0  0  0
   29.3390    7.7690  -11.9620 N   0  0  0  0  0  0  0  0  0  0  0  0
   29.2580    9.1550  -12.0090 C   0  0  0  0  0  0  0  0  0  0  0  0
   26.9730    6.8390   -9.2990 O   0  0  0  0  0  0  0  0  0  0  0  0
   28.4010    9.8290  -11.1440 C   0  0  0  0  0  0  0  0  0  0  0  0
   27.6290    9.1150  -10.2370 C   0  0  0  0  0  0  0  0  0  0  0  0
   29.8960   10.0520  -12.7860 N   0  0  0  0  0  0  0  0  0  0  0  0
   29.4650   11.3160  -12.4470 C   0  0  0  0  0  0  0  0  0  0  0  0
   28.5410   11.0080  -11.4260 C   0  0  0  0  0  0  0  0  0  0  0  0
   26.2840    7.2660   -8.1600 C   0  0  0  0  0  0  0  0  0  0  0  0
   25.4810    8.3880   -8.2900 N   0  0  0  0  0  0  0  0  0  0  0  0
   24.9200    8.6570   -7.0550 N   0  0  0  0  0  0  0  0  0  0  0  0
   25.3460    7.7290   -6.1860 C   0  0  0  0  0  0  0  0  0  0  0  0
   26.1500    6.8820   -6.8370 C   0  0  0  0  0  0  0  0  0  0  0  0
   24.0880    9.6920   -6.7960 C   0  0  0  0  0  0  0  0  0  0  0  0
   22.9860    9.5110   -5.9680 C   0  0  0  0  0  0  0  0  0  0  0  0
   24.5150   10.9760   -7.1110 C   0  0  0  0  0  0  0  0  0  0  0  0
   23.8240   12.0840   -6.6290 C   0  0  0  0  0  0  0  0  0  0  0  0
   22.7400   11.8970   -5.7720 N   0  0  0  0  0  0  0  0  0  0  0  0
   22.3120   10.6130   -5.4570 C   0  0  0  0  0  0  0  0  0  0  0  0
   21.3240   10.4500   -4.7180 O   0  0  0  0  0  0  0  0  0  0  0  0
   22.5230    8.1170   -5.6240 C   0  0  1  0  0  0  0  0  0  0  0  0
   28.6297    5.9584  -11.0244 H   0  0  0  0  0  0  0  0  0  0  0  0
   29.9752    7.2696  -12.5998 H   0  0  0  0  0  0  0  0  0  0  0  0
   26.9541    9.6478   -9.5509 H   0  0  0  0  0  0  0  0  0  0  0  0
   29.7592   12.2931  -12.8578 H   0  0  0  0  0  0  0  0  0  0  0  0
   27.9729   11.7947  -10.9080 H   0  0  0  0  0  0  0  0  0  0  0  0
   25.0797    7.6740   -5.1202 H   0  0  0  0  0  0  0  0  0  0  0  0
   26.6360    6.0046   -6.3853 H   0  0  0  0  0  0  0  0  0  0  0  0
   25.4032   11.1176   -7.7442 H   0  0  0  0  0  0  0  0  0  0  0  0
   24.1306   13.0990   -6.9218 H   0  0  0  0  0  0  0  0  0  0  0  0
   22.2553   12.7127   -5.3714 H   0  0  0  0  0  0  0  0  0  0  0  0
   22.4850    8.0026   -4.5306 H   0  0  0  0  0  0  0  0  0  0  0  0
   21.5208    7.9491   -6.0453 H   0  0  0  0  0  0  0  0  0  0  0  0
   23.2256    7.3829   -6.0453 H   0  0  0  0  0  0  0  0  0  0  0  0
 11  5  1  0
 11 12  2  0
 11 15  1  0
 12 13  1  0
 13 16  1  0
 13 14  1  0
 14 15  2  0
 16 18  1  0
 16 17  2  0
 17 23  1  0
 17 21  1  0
 18 19  2  0
 19 20  1  0
 20 21  1  0
 21 22  2  0
  5  1  1  0
  1  2  2  0
  1  7  1  0
  2  3  1  0
  3  4  1  0
  4  8  2  0
  4  6  1  0
  6 10  1  0
  6  7  2  0
  8  9  1  0
  9 10  2  0
  2 24  1  0
  3 25  1  0
  7 26  1  0
  9 27  1  0
 10 28  1  0
 14 29  1  0
 15 30  1  0
 18 31  1  0
 19 32  1  0
 20 33  1  0
 23 34  1  1
 23 35  1  0
 23 36  1  0
M  END
>  <Pose ID>  (351)
460

>  <Score>  (351)
-5.844938278198242

>  <smiles>  (351)
Cc1c(-n2ccc(Oc3c[nH]c4nccc-4c3)n2)cc[nH]c1=O

$$$$

     RDKit          3D

 38 41  0  0  0  0  0  0  0  0999 V2000
   27.2010    8.3180  -10.2320 C   0  0  0  0  0  0  0  0  0  0  0  0
   27.8740    7.3280  -10.9350 C   0  0  0  0  0  0  0  0  0  0  0  0
   28.8990    7.6710  -11.8110 N   0  0  0  0  0  0  0  0  0  0  0  0
   29.2510    9.0040  -11.9790 C   0  0  0  0  0  0  0  0  0  0  0  0
   26.1600    7.7950   -9.3510 O   0  0  0  0  0  0  0  0  0  0  0  0
   28.5760    9.9970  -11.2750 C   0  0  0  0  0  0  0  0  0  0  0  0
   27.5530    9.6520  -10.4010 C   0  0  0  0  0  0  0  0  0  0  0  0
   30.1910    9.5770  -12.7550 N   0  0  0  0  0  0  0  0  0  0  0  0
   30.1440   10.9420  -12.5760 C   0  0  0  0  0  0  0  0  0  0  0  0
   29.0910   11.0380  -11.6370 C   0  0  0  0  0  0  0  0  0  0  0  0
   25.5470    8.5340   -8.3330 C   0  0  0  0  0  0  0  0  0  0  0  0
   25.1390    9.8200   -8.6460 N   0  0  0  0  0  0  0  0  0  0  0  0
   24.5930   10.3830   -7.5080 N   0  0  0  0  0  0  0  0  0  0  0  0
   24.6450    9.4750   -6.5210 C   0  0  0  0  0  0  0  0  0  0  0  0
   25.1980    8.3610   -7.0050 C   0  0  0  0  0  0  0  0  0  0  0  0
   24.1260   11.5670   -7.4610 C   0  0  0  0  0  0  0  0  0  0  0  0
   23.5120   12.1980   -6.3850 N   0  0  0  0  0  0  0  0  0  0  0  0
   23.0420   13.4990   -6.5180 C   0  0  0  0  0  0  0  0  0  0  0  0
   24.2660   12.2370   -8.6700 C   0  0  0  0  0  0  0  0  0  0  0  0
   23.7950   13.5380   -8.8040 C   0  0  0  0  0  0  0  0  0  0  0  0
   23.1740   14.1610   -7.7550 C   0  0  0  0  0  0  0  0  0  0  0  0
   25.4120    7.0920   -6.2170 C   0  0  1  0  0  0  0  0  0  0  0  0
   30.9790   12.0300  -13.2050 C   0  0  1  0  0  0  0  0  0  0  0  0
   27.5968    6.2722  -10.7994 H   0  0  0  0  0  0  0  0  0  0  0  0
   29.3965    6.9368  -12.3347 H   0  0  0  0  0  0  0  0  0  0  0  0
   27.0207   10.4356   -9.8418 H   0  0  0  0  0  0  0  0  0  0  0  0
   28.7526   12.0109  -11.2510 H   0  0  0  0  0  0  0  0  0  0  0  0
   24.2922    9.6236   -5.4897 H   0  0  0  0  0  0  0  0  0  0  0  0
   22.5706   14.0081   -5.6644 H   0  0  0  0  0  0  0  0  0  0  0  0
   24.7501   11.7374   -9.5221 H   0  0  0  0  0  0  0  0  0  0  0  0
   23.9220   14.0700   -9.7584 H   0  0  0  0  0  0  0  0  0  0  0  0
   22.7775   15.1797   -7.8779 H   0  0  0  0  0  0  0  0  0  0  0  0
   25.3739    7.3177   -5.1411 H   0  0  0  0  0  0  0  0  0  0  0  0
   24.6234    6.3673   -6.4678 H   0  0  0  0  0  0  0  0  0  0  0  0
   26.3947    6.6660   -6.4678 H   0  0  0  0  0  0  0  0  0  0  0  0
   31.4451   12.6374  -12.4152 H   0  0  0  0  0  0  0  0  0  0  0  0
   31.7628   11.5761  -13.8292 H   0  0  0  0  0  0  0  0  0  0  0  0
   30.3378   12.6697  -13.8292 H   0  0  0  0  0  0  0  0  0  0  0  0
  5  1  1  0
  5 11  1  0
 11 12  2  0
 11 15  1  0
 12 13  1  0
 13 16  1  0
 13 14  1  0
 14 15  2  0
 15 22  1  0
 16 19  1  0
 16 17  2  0
 17 18  1  0
 18 21  2  0
 19 20  2  0
 20 21  1  0
  1  2  2  0
  1  7  1  0
  2  3  1  0
  3  4  1  0
  4  8  2  0
  4  6  1  0
  6 10  1  0
  6  7  2  0
  8  9  1  0
  9 23  1  0
  9 10  2  0
  2 24  1  0
  3 25  1  0
  7 26  1  0
 10 27  1  0
 14 28  1  0
 18 29  1  0
 19 30  1  0
 20 31  1  0
 21 32  1  0
 22 33  1  1
 22 34  1  0
 22 35  1  0
 23 36  1  1
 23 37  1  0
 23 38  1  0
M  END
>  <Pose ID>  (352)
234

>  <Score>  (352)
-5.838223457336426

>  <smiles>  (352)
Cc1cc2cc(Oc3nn(-c4ccccn4)cc3C)c[nH]c-2n1

$$$$

     RDKit          3D

 33 35  0  0  0  0  0  0  0  0999 V2000
   26.7540    8.9370  -10.3860 C   0  0  0  0  0  0  0  0  0  0  0  0
   27.4040    7.7210  -10.1990 C   0  0  0  0  0  0  0  0  0  0  0  0
   28.6540    7.5060  -10.7690 N   0  0  0  0  0  0  0  0  0  0  0  0
   25.5410    9.4670   -9.9660 N   0  0  0  0  0  0  0  0  0  0  0  0
   29.2530    8.5050  -11.5310 C   0  0  0  0  0  0  0  0  0  0  0  0
   28.6020    9.7180  -11.7200 C   0  0  0  0  0  0  0  0  0  0  0  0
   27.3530    9.9330  -11.1490 C   0  0  0  0  0  0  0  0  0  0  0  0
   30.4330    8.5330  -12.1740 N   0  0  0  0  0  0  0  0  0  0  0  0
   30.5730    9.7540  -12.7920 C   0  0  0  0  0  0  0  0  0  0  0  0
   29.3550   10.3670  -12.4240 C   0  0  0  0  0  0  0  0  0  0  0  0
   25.1970    9.8080   -8.5650 C   0  0  0  0  0  0  0  0  0  0  0  0
   24.0040   10.3230   -8.0890 N   0  0  0  0  0  0  0  0  0  0  0  0
   23.8590   10.6330   -6.7420 C   0  0  0  0  0  0  0  0  0  0  0  0
   24.9110   10.3910   -5.8640 C   0  0  0  0  0  0  0  0  0  0  0  0
   26.1040    9.8590   -6.3360 C   0  0  0  0  0  0  0  0  0  0  0  0
   26.2460    9.5670   -7.6860 N   0  0  0  0  0  0  0  0  0  0  0  0
   27.0440    9.6450   -5.5500 O   0  0  0  0  0  0  0  0  0  0  0  0
   26.7080   11.1360  -11.3390 O   0  0  0  0  0  0  0  0  0  0  0  0
   27.3560   12.1500  -10.5830 C   0  0  1  0  0  0  0  0  0  0  0  0
   24.7550   10.7060   -4.3960 C   0  0  1  0  0  0  0  0  0  0  0  0
   26.9291    6.9298   -9.6003 H   0  0  0  0  0  0  0  0  0  0  0  0
   29.1368    6.6073  -10.6273 H   0  0  0  0  0  0  0  0  0  0  0  0
   24.8234    9.6366  -10.6851 H   0  0  0  0  0  0  0  0  0  0  0  0
   31.4014   10.1437  -13.4018 H   0  0  0  0  0  0  0  0  0  0  0  0
   29.0983   11.3833  -12.7576 H   0  0  0  0  0  0  0  0  0  0  0  0
   22.9183   11.0670   -6.3722 H   0  0  0  0  0  0  0  0  0  0  0  0
   27.1300    9.1712   -8.0364 H   0  0  0  0  0  0  0  0  0  0  0  0
   27.2261   11.9467   -9.5098 H   0  0  0  0  0  0  0  0  0  0  0  0
   28.4285   12.1604  -10.8270 H   0  0  0  0  0  0  0  0  0  0  0  0
   26.9149   13.1277  -10.8270 H   0  0  0  0  0  0  0  0  0  0  0  0
   25.1647    9.8787   -3.7979 H   0  0  0  0  0  0  0  0  0  0  0  0
   25.2982   11.6330   -4.1602 H   0  0  0  0  0  0  0  0  0  0  0  0
   23.6885   10.8358   -4.1602 H   0  0  0  0  0  0  0  0  0  0  0  0
  1  7  1  0
  1  2  2  0
  1  4  1  0
  2  3  1  0
  3  5  1  0
  5  8  2  0
  5  6  1  0
  6 10  1  0
  6  7  2  0
  7 18  1  0
  8  9  1  0
  9 10  2  0
  4 11  1  0
 11 12  2  0
 11 16  1  0
 12 13  1  0
 13 14  2  0
 14 15  1  0
 14 20  1  0
 15 16  1  0
 15 17  2  0
 18 19  1  0
  2 21  1  0
  3 22  1  0
  4 23  1  0
  9 24  1  0
 10 25  1  0
 13 26  1  0
 16 27  1  0
 19 28  1  1
 19 29  1  0
 19 30  1  0
 20 31  1  1
 20 32  1  0
 20 33  1  0
M  END
>  <Pose ID>  (353)
29

>  <Score>  (353)
-5.835751533508301

>  <smiles>  (353)
COc1c(Nc2ncc(C)c(=O)[nH]2)c[nH]c2nccc1-2

$$$$

     RDKit          3D

 38 41  0  0  0  0  0  0  0  0999 V2000
   27.0150    8.4930  -10.1120 C   0  0  0  0  0  0  0  0  0  0  0  0
   27.6630    7.4000  -10.6680 C   0  0  0  0  0  0  0  0  0  0  0  0
   28.7390    7.5910  -11.5280 N   0  0  0  0  0  0  0  0  0  0  0  0
   29.1650    8.8780  -11.8300 C   0  0  0  0  0  0  0  0  0  0  0  0
   25.9120    8.1210   -9.2280 O   0  0  0  0  0  0  0  0  0  0  0  0
   28.5150    9.9740  -11.2750 C   0  0  0  0  0  0  0  0  0  0  0  0
   27.4390    9.7800  -10.4150 C   0  0  0  0  0  0  0  0  0  0  0  0
   30.1650    9.3150  -12.6200 N   0  0  0  0  0  0  0  0  0  0  0  0
   30.1800   10.6910  -12.5980 C   0  0  0  0  0  0  0  0  0  0  0  0
   29.0970   10.9420  -11.7280 C   0  0  0  0  0  0  0  0  0  0  0  0
   25.2970    9.0010   -8.3300 C   0  0  0  0  0  0  0  0  0  0  0  0
   24.9690   10.2620   -8.8030 N   0  0  0  0  0  0  0  0  0  0  0  0
   24.4060   10.9750   -7.7620 N   0  0  0  0  0  0  0  0  0  0  0  0
   24.3700   10.1860   -6.6780 C   0  0  0  0  0  0  0  0  0  0  0  0
   24.8840    8.9960   -7.0080 C   0  0  0  0  0  0  0  0  0  0  0  0
   23.9690   12.1630   -7.8040 C   0  0  0  0  0  0  0  0  0  0  0  0
   23.3800   12.6080   -6.6260 N   0  0  0  0  0  0  0  0  0  0  0  0
   24.2460   13.0610   -8.8260 C   0  0  0  0  0  0  0  0  0  0  0  0
   23.9360   14.4070   -8.6700 C   0  0  0  0  0  0  0  0  0  0  0  0
   23.3480   14.8530   -7.4940 C   0  0  0  0  0  0  0  0  0  0  0  0
   23.1150   13.9850   -6.4770 C   0  0  0  0  0  0  0  0  0  0  0  0
   25.0000    7.8170   -6.0740 C   0  0  1  0  0  0  0  0  0  0  0  0
   22.9680   16.3060   -7.3470 C   0  0  1  0  0  0  0  0  0  0  0  0
   27.3254    6.3809  -10.4284 H   0  0  0  0  0  0  0  0  0  0  0  0
   29.2196    6.7788  -11.9406 H   0  0  0  0  0  0  0  0  0  0  0  0
   26.9238   10.6465   -9.9748 H   0  0  0  0  0  0  0  0  0  0  0  0
   30.8480   11.3968  -13.1134 H   0  0  0  0  0  0  0  0  0  0  0  0
   28.7926   11.9673  -11.4709 H   0  0  0  0  0  0  0  0  0  0  0  0
   23.9840   10.4690   -5.6876 H   0  0  0  0  0  0  0  0  0  0  0  0
   24.7104   12.7076   -9.7584 H   0  0  0  0  0  0  0  0  0  0  0  0
   24.1567   15.1192   -9.4787 H   0  0  0  0  0  0  0  0  0  0  0  0
   22.7142   14.3606   -5.5240 H   0  0  0  0  0  0  0  0  0  0  0  0
   24.9653    8.1694   -5.0326 H   0  0  0  0  0  0  0  0  0  0  0  0
   24.1658    7.1230   -6.2542 H   0  0  0  0  0  0  0  0  0  0  0  0
   25.9535    7.2989   -6.2542 H   0  0  0  0  0  0  0  0  0  0  0  0
   22.9012   16.5613   -6.2791 H   0  0  0  0  0  0  0  0  0  0  0  0
   23.7318   16.9352   -7.8274 H   0  0  0  0  0  0  0  0  0  0  0  0
   21.9940   16.4807   -7.8274 H   0  0  0  0  0  0  0  0  0  0  0  0
 11  5  1  0
 11 12  2  0
 11 15  1  0
 12 13  1  0
 13 16  1  0
 13 14  1  0
 14 15  2  0
 15 22  1  0
 16 18  1  0
 16 17  2  0
 17 21  1  0
 18 19  2  0
 19 20  1  0
 20 23  1  0
 20 21  2  0
  5  1  1  0
  1  2  2  0
  1  7  1  0
  2  3  1  0
  3  4  1  0
  4  8  2  0
  4  6  1  0
  6 10  1  0
  6  7  2  0
  8  9  1  0
  9 10  2  0
  2 24  1  0
  3 25  1  0
  7 26  1  0
  9 27  1  0
 10 28  1  0
 14 29  1  0
 18 30  1  0
 19 31  1  0
 21 32  1  0
 22 33  1  1
 22 34  1  0
 22 35  1  0
 23 36  1  1
 23 37  1  0
 23 38  1  0
M  END
>  <Pose ID>  (354)
323

>  <Score>  (354)
-5.828824043273926

>  <smiles>  (354)
Cc1ccc(-n2cc(C)c(Oc3c[nH]c4nccc-4c3)n2)nc1

$$$$

     RDKit          3D

 38 41  0  0  0  0  0  0  0  0999 V2000
   27.0470    9.1020  -10.1750 C   0  0  0  0  0  0  0  0  0  0  0  0
   27.6590    7.9620  -10.6800 C   0  0  0  0  0  0  0  0  0  0  0  0
   28.7530    8.0810  -11.5300 N   0  0  0  0  0  0  0  0  0  0  0  0
   29.2340    9.3390  -11.8720 C   0  0  0  0  0  0  0  0  0  0  0  0
   25.9200    8.8070   -9.2920 O   0  0  0  0  0  0  0  0  0  0  0  0
   28.6190   10.4800  -11.3660 C   0  0  0  0  0  0  0  0  0  0  0  0
   27.5260   10.3590  -10.5160 C   0  0  0  0  0  0  0  0  0  0  0  0
   30.2610    9.7050  -12.6650 N   0  0  0  0  0  0  0  0  0  0  0  0
   30.3280   11.0810  -12.6910 C   0  0  0  0  0  0  0  0  0  0  0  0
   29.2440   11.4070  -11.8470 C   0  0  0  0  0  0  0  0  0  0  0  0
   25.3270    9.7430   -8.4360 C   0  0  0  0  0  0  0  0  0  0  0  0
   25.0550   10.9950   -8.9600 N   0  0  0  0  0  0  0  0  0  0  0  0
   24.5090   11.7690   -7.9540 N   0  0  0  0  0  0  0  0  0  0  0  0
   24.4280   11.0230   -6.8440 C   0  0  0  0  0  0  0  0  0  0  0  0
   24.9000    9.8040   -7.1210 C   0  0  0  0  0  0  0  0  0  0  0  0
   24.1280   13.0010   -8.1110 C   0  0  0  0  0  0  0  0  0  0  0  0
   23.5810   13.7200   -7.0540 C   0  0  0  0  0  0  0  0  0  0  0  0
   24.3070   13.6110   -9.3460 N   0  0  0  0  0  0  0  0  0  0  0  0
   23.2140   15.0470   -7.2330 C   0  0  0  0  0  0  0  0  0  0  0  0
   23.9380   14.9400   -9.5260 C   0  0  0  0  0  0  0  0  0  0  0  0
   23.4180   15.6610   -8.5300 C   0  0  0  0  0  0  0  0  0  0  0  0
   22.6140   15.8380   -6.0970 C   0  0  1  0  0  0  0  0  0  0  0  0
   27.1380    6.5970  -10.3060 C   0  0  1  0  0  0  0  0  0  0  0  0
   29.2070    7.2364  -11.9062 H   0  0  0  0  0  0  0  0  0  0  0  0
   27.0404   11.2601  -10.1134 H   0  0  0  0  0  0  0  0  0  0  0  0
   31.0300   11.7413  -13.2213 H   0  0  0  0  0  0  0  0  0  0  0  0
   28.9763   12.4524  -11.6337 H   0  0  0  0  0  0  0  0  0  0  0  0
   24.0393   11.3571   -5.8707 H   0  0  0  0  0  0  0  0  0  0  0  0
   24.9430    8.9688   -6.4064 H   0  0  0  0  0  0  0  0  0  0  0  0
   23.4390   13.2373   -6.0758 H   0  0  0  0  0  0  0  0  0  0  0  0
   24.0779   15.4077  -10.5117 H   0  0  0  0  0  0  0  0  0  0  0  0
   23.1461   16.7144   -8.6926 H   0  0  0  0  0  0  0  0  0  0  0  0
   22.9401   15.4081   -5.1384 H   0  0  0  0  0  0  0  0  0  0  0  0
   22.9478   16.8841   -6.1621 H   0  0  0  0  0  0  0  0  0  0  0  0
   21.5166   15.7985   -6.1621 H   0  0  0  0  0  0  0  0  0  0  0  0
   27.1030    6.5054   -9.2104 H   0  0  0  0  0  0  0  0  0  0  0  0
   26.1264    6.4653  -10.7174 H   0  0  0  0  0  0  0  0  0  0  0  0
   27.8046    5.8247  -10.7174 H   0  0  0  0  0  0  0  0  0  0  0  0
  5  1  1  0
  5 11  1  0
  1  2  2  0
  1  7  1  0
  2  3  1  0
  2 23  1  0
  3  4  1  0
  4  8  2  0
  4  6  1  0
  6 10  1  0
  6  7  2  0
  8  9  1  0
  9 10  2  0
 11 12  2  0
 11 15  1  0
 12 13  1  0
 13 16  1  0
 13 14  1  0
 14 15  2  0
 16 18  1  0
 16 17  2  0
 17 19  1  0
 18 20  2  0
 19 21  2  0
 19 22  1  0
 20 21  1  0
  3 24  1  0
  7 25  1  0
  9 26  1  0
 10 27  1  0
 14 28  1  0
 15 29  1  0
 17 30  1  0
 20 31  1  0
 21 32  1  0
 22 33  1  1
 22 34  1  0
 22 35  1  0
 23 36  1  1
 23 37  1  0
 23 38  1  0
M  END
>  <Pose ID>  (355)
397

>  <Score>  (355)
-5.828345775604248

>  <smiles>  (355)
Cc1ccnc(-n2ccc(Oc3cc4ccnc-4[nH]c3C)n2)c1

$$$$

     RDKit          3D

 38 41  0  0  0  0  0  0  0  0999 V2000
   27.4900    7.7250   -9.8010 C   0  0  0  0  0  0  0  0  0  0  0  0
   26.7360    6.7830   -9.1160 N   0  0  0  0  0  0  0  0  0  0  0  0
   26.0360    7.1500   -7.9730 C   0  0  0  0  0  0  0  0  0  0  0  0
   25.3480    6.1490   -7.3420 C   0  0  0  0  0  0  0  0  0  0  0  0
   24.6040    6.4100   -6.1990 N   0  0  0  0  0  0  0  0  0  0  0  0
   24.5590    7.6950   -5.6760 C   0  0  0  0  0  0  0  0  0  0  0  0
   25.2600    8.7260   -6.2960 C   0  0  0  0  0  0  0  0  0  0  0  0
   26.0900    8.4610   -7.5160 C   0  0  0  0  0  0  0  0  0  0  0  0
   27.5470    9.0380   -9.3430 C   0  0  0  0  0  0  0  0  0  0  0  0
   26.8460    9.4060   -8.2010 C   0  0  0  0  0  0  0  0  0  0  0  0
   28.2580    7.6110  -10.9360 N   0  0  0  0  0  0  0  0  0  0  0  0
   28.9760    8.4610  -11.5570 C   0  0  0  0  0  0  0  0  0  0  0  0
   30.3680    8.4210  -11.7380 N   0  0  0  0  0  0  0  0  0  0  0  0
   30.6830    9.5220  -12.4290 O   0  0  0  0  0  0  0  0  0  0  0  0
   29.6420   10.2250  -12.7020 C   0  0  0  0  0  0  0  0  0  0  0  0
   28.5240    9.5640  -12.1950 C   0  0  0  0  0  0  0  0  0  0  0  0
   23.8040    7.9560   -4.5180 C   0  0  0  0  0  0  0  0  0  0  0  0
   22.7400    8.7870   -4.5570 N   0  0  0  0  0  0  0  0  0  0  0  0
   24.0320    7.2460   -3.2420 C   0  0  0  0  0  0  0  0  0  0  0  0
   23.3060    7.6020   -2.3700 C   0  0  0  0  0  0  0  0  0  0  0  0
   22.2340    8.6170   -3.2220 C   0  0  0  0  0  0  0  0  0  0  0  0
   22.1720    9.6130   -5.5780 C   0  0  1  0  0  0  0  0  0  0  0  0
   20.9700    9.2310   -2.6700 C   0  0  1  0  0  0  0  0  0  0  0  0
   25.3849    5.1261   -7.7450 H   0  0  0  0  0  0  0  0  0  0  0  0
   25.2042    9.7454   -5.8864 H   0  0  0  0  0  0  0  0  0  0  0  0
   28.1467    9.7842   -9.8848 H   0  0  0  0  0  0  0  0  0  0  0  0
   26.8891   10.4439   -7.8392 H   0  0  0  0  0  0  0  0  0  0  0  0
   28.2517    6.6720  -11.3592 H   0  0  0  0  0  0  0  0  0  0  0  0
   29.6345   11.1830  -13.2425 H   0  0  0  0  0  0  0  0  0  0  0  0
   27.4750    9.8795  -12.2949 H   0  0  0  0  0  0  0  0  0  0  0  0
   24.7968    6.4662   -3.1119 H   0  0  0  0  0  0  0  0  0  0  0  0
   23.3220    7.3452   -1.3005 H   0  0  0  0  0  0  0  0  0  0  0  0
   21.6071   10.4344   -5.1131 H   0  0  0  0  0  0  0  0  0  0  0  0
   22.9762   10.0287   -6.2029 H   0  0  0  0  0  0  0  0  0  0  0  0
   21.4960    9.0109   -6.2029 H   0  0  0  0  0  0  0  0  0  0  0  0
   21.0041    9.2144   -1.5707 H   0  0  0  0  0  0  0  0  0  0  0  0
   20.8849   10.2708   -3.0186 H   0  0  0  0  0  0  0  0  0  0  0  0
   20.1001    8.6551   -3.0186 H   0  0  0  0  0  0  0  0  0  0  0  0
  1 11  1  0
  1  9  1  0
  1  2  2  0
  2  3  1  0
  3  8  2  0
  3  4  1  0
  4  5  2  0
  5  6  1  0
  6  7  2  0
  6 17  1  0
  7  8  1  0
  8 10  1  0
  9 10  2  0
 11 12  1  0
 12 16  1  0
 12 13  2  0
 13 14  1  0
 14 15  1  0
 15 16  2  0
 17 18  1  0
 17 19  2  0
 18 22  1  0
 18 21  1  0
 19 20  1  0
 20 21  2  0
 21 23  1  0
  4 24  1  0
  7 25  1  0
  9 26  1  0
 10 27  1  0
 11 28  1  0
 15 29  1  0
 16 30  1  0
 19 31  1  0
 20 32  1  0
 22 33  1  1
 22 34  1  0
 22 35  1  0
 23 36  1  1
 23 37  1  0
 23 38  1  0
M  END
>  <Pose ID>  (356)
27

>  <Score>  (356)
-5.826300621032715

>  <smiles>  (356)
Cc1ccc(-c2cc3ccc(Nc4ccon4)nc3cn2)n1C

$$$$

     RDKit          3D

 37 40  0  0  0  0  0  0  0  0999 V2000
   27.8100    7.7880  -10.2120 C   0  0  0  0  0  0  0  0  0  0  0  0
   28.7610    7.0950  -10.9500 C   0  0  0  0  0  0  0  0  0  0  0  0
   29.5910    7.7790  -11.8300 N   0  0  0  0  0  0  0  0  0  0  0  0
   29.4690    9.1560  -11.9720 C   0  0  0  0  0  0  0  0  0  0  0  0
   27.0230    6.9290   -9.3320 O   0  0  0  0  0  0  0  0  0  0  0  0
   28.5150    9.8490  -11.2340 C   0  0  0  0  0  0  0  0  0  0  0  0
   27.6880    9.1650  -10.3540 C   0  0  0  0  0  0  0  0  0  0  0  0
   30.1470   10.0270  -12.7470 N   0  0  0  0  0  0  0  0  0  0  0  0
   29.6470   11.2920  -12.5320 C   0  0  0  0  0  0  0  0  0  0  0  0
   28.6430   11.0110  -11.5790 C   0  0  0  0  0  0  0  0  0  0  0  0
   26.2190    7.3990   -8.2860 C   0  0  0  0  0  0  0  0  0  0  0  0
   25.3960    8.4790   -8.5630 N   0  0  0  0  0  0  0  0  0  0  0  0
   24.7540    8.7800   -7.4570 N   0  0  0  0  0  0  0  0  0  0  0  0
   25.0500    7.9680   -6.3700 C   0  0  0  0  0  0  0  0  0  0  0  0
   25.9760    7.0930   -6.9590 C   0  0  0  0  0  0  0  0  0  0  0  0
   23.8290    9.8090   -7.3240 C   0  0  0  0  0  0  0  0  0  0  0  0
   23.2000   10.0260   -6.1040 C   0  0  0  0  0  0  0  0  0  0  0  0
   23.4980    9.2130   -5.0160 C   0  0  0  0  0  0  0  0  0  0  0  0
   24.4220    8.1840   -5.1480 N   0  0  0  0  0  0  0  0  0  0  0  0
   30.0540   12.6080  -13.1440 C   0  0  1  0  0  0  0  0  0  0  0  0
   28.9140   12.9490  -14.0810 C   0  0  1  0  0  0  0  0  0  0  0  0
   27.5560   13.1580  -13.4030 C   0  0  1  0  0  0  0  0  0  0  0  0
   28.8571    6.0050  -10.8379 H   0  0  0  0  0  0  0  0  0  0  0  0
   30.2966    7.2654  -12.3770 H   0  0  0  0  0  0  0  0  0  0  0  0
   26.9353    9.7133   -9.7684 H   0  0  0  0  0  0  0  0  0  0  0  0
   28.0046   11.8060  -11.1663 H   0  0  0  0  0  0  0  0  0  0  0  0
   26.4544    6.2583   -6.4257 H   0  0  0  0  0  0  0  0  0  0  0  0
   23.5947   10.4521   -8.1852 H   0  0  0  0  0  0  0  0  0  0  0  0
   22.4674   10.8398   -5.9991 H   0  0  0  0  0  0  0  0  0  0  0  0
   23.0015    9.3848   -4.0496 H   0  0  0  0  0  0  0  0  0  0  0  0
   30.1668   13.3806  -12.3691 H   0  0  0  0  0  0  0  0  0  0  0  0
   31.0228   12.5507  -13.6618 H   0  0  0  0  0  0  0  0  0  0  0  0
   29.1756   13.8757  -14.6129 H   0  0  0  0  0  0  0  0  0  0  0  0
   28.7940   12.0812  -14.7462 H   0  0  0  0  0  0  0  0  0  0  0  0
   27.6846   13.1382  -12.3107 H   0  0  0  0  0  0  0  0  0  0  0  0
   27.1408   14.1306  -13.7058 H   0  0  0  0  0  0  0  0  0  0  0  0
   26.8676   12.3552  -13.7058 H   0  0  0  0  0  0  0  0  0  0  0  0
  1  2  2  0
  1  7  1  0
  1  5  1  0
  2  3  1  0
  3  4  1  0
  4  8  2  0
  4  6  1  0
  6 10  1  0
  6  7  2  0
  8  9  1  0
  9 20  1  0
  9 10  2  0
  5 11  1  0
 11 12  2  0
 11 15  1  0
 12 13  1  0
 13 16  1  0
 13 14  1  0
 14 15  2  0
 14 19  1  0
 16 17  2  0
 17 18  1  0
 18 19  2  0
 20 21  1  0
 21 22  1  0
  2 23  1  0
  3 24  1  0
  7 25  1  0
 10 26  1  0
 15 27  1  0
 16 28  1  0
 17 29  1  0
 18 30  1  0
 20 31  1  1
 20 32  1  0
 21 33  1  6
 21 34  1  0
 22 35  1  1
 22 36  1  0
 22 37  1  0
M  END
>  <Pose ID>  (357)
364

>  <Score>  (357)
-5.824777126312256

>  <smiles>  (357)
CCCc1cc2cc(Oc3cc4ncccn4n3)c[nH]c-2n1

$$$$

     RDKit          3D

 40 43  0  0  0  0  0  0  0  0999 V2000
   27.3680    7.9760  -10.1440 C   0  0  0  0  0  0  0  0  0  0  0  0
   28.4450    7.1820  -10.5110 C   0  0  0  0  0  0  0  0  0  0  0  0
   29.4440    7.7020  -11.3260 N   0  0  0  0  0  0  0  0  0  0  0  0
   26.5470    7.2660   -9.3550 N   0  0  0  0  0  0  0  0  0  0  0  0
   29.3630    9.0140  -11.7740 C   0  0  0  0  0  0  0  0  0  0  0  0
   28.2850    9.8080  -11.4050 C   0  0  0  0  0  0  0  0  0  0  0  0
   27.2870    9.2910  -10.5920 C   0  0  0  0  0  0  0  0  0  0  0  0
   30.1930    9.7280  -12.5560 N   0  0  0  0  0  0  0  0  0  0  0  0
   29.6720   10.9910  -12.7120 C   0  0  0  0  0  0  0  0  0  0  0  0
   28.4890   10.8770  -11.9520 C   0  0  0  0  0  0  0  0  0  0  0  0
   25.9890    7.7830   -8.1450 C   0  0  0  0  0  0  0  0  0  0  0  0
   25.3240    6.9060   -7.2980 N   0  0  0  0  0  0  0  0  0  0  0  0
   24.6660    7.3870   -6.1720 C   0  0  0  0  0  0  0  0  0  0  0  0
   24.6750    8.7490   -5.8940 C   0  0  0  0  0  0  0  0  0  0  0  0
   25.3420    9.6280   -6.7410 C   0  0  0  0  0  0  0  0  0  0  0  0
   26.0260    9.1370   -7.8510 C   0  0  0  0  0  0  0  0  0  0  0  0
   23.9380    6.7230   -5.1820 C   0  0  0  0  0  0  0  0  0  0  0  0
   23.6380    7.6800   -4.2380 N   0  0  0  0  0  0  0  0  0  0  0  0
   24.0650    8.8640   -4.5370 C   0  0  0  0  0  0  0  0  0  0  0  0
   24.0700   10.0900   -3.9130 O   0  0  0  0  0  0  0  0  0  0  0  0
   22.7450   10.5830   -3.8890 C   0  0  1  0  0  0  0  0  0  0  0  0
   30.2140   12.1690  -13.4830 C   0  0  1  0  0  0  0  0  0  0  0  0
   22.3190   10.3140   -2.3620 C   0  0  1  0  0  0  0  0  0  0  0  0
   28.5083    6.1423  -10.1575 H   0  0  0  0  0  0  0  0  0  0  0  0
   30.2447    7.1138  -11.5977 H   0  0  0  0  0  0  0  0  0  0  0  0
   26.3079    6.3039   -9.6343 H   0  0  0  0  0  0  0  0  0  0  0  0
   26.4324    9.9199  -10.3017 H   0  0  0  0  0  0  0  0  0  0  0  0
   27.7830   11.7153  -11.8577 H   0  0  0  0  0  0  0  0  0  0  0  0
   25.3184    5.8970   -7.5046 H   0  0  0  0  0  0  0  0  0  0  0  0
   25.3294   10.7084   -6.5348 H   0  0  0  0  0  0  0  0  0  0  0  0
   26.5955    9.8240   -8.4942 H   0  0  0  0  0  0  0  0  0  0  0  0
   23.6620    5.6584   -5.1607 H   0  0  0  0  0  0  0  0  0  0  0  0
   22.7128   11.6557   -4.1304 H   0  0  0  0  0  0  0  0  0  0  0  0
   22.0806   10.1084   -4.6261 H   0  0  0  0  0  0  0  0  0  0  0  0
   30.5673   12.9368  -12.7790 H   0  0  0  0  0  0  0  0  0  0  0  0
   31.0509   11.8392  -14.1161 H   0  0  0  0  0  0  0  0  0  0  0  0
   29.4190   12.5900  -14.1161 H   0  0  0  0  0  0  0  0  0  0  0  0
   23.0546   10.7785   -1.6889 H   0  0  0  0  0  0  0  0  0  0  0  0
   21.3260   10.7492   -2.1763 H   0  0  0  0  0  0  0  0  0  0  0  0
   22.2850    9.2303   -2.1763 H   0  0  0  0  0  0  0  0  0  0  0  0
  4  1  1  0
  4 11  1  0
  1  7  1  0
  1  2  2  0
  2  3  1  0
  3  5  1  0
  5  8  2  0
  5  6  1  0
  6 10  1  0
  6  7  2  0
  8  9  1  0
  9 22  1  0
  9 10  2  0
 11 16  2  0
 11 12  1  0
 12 13  1  0
 13 14  1  0
 13 17  2  0
 14 15  2  0
 14 19  1  0
 15 16  1  0
 17 18  1  0
 18 19  2  0
 19 20  1  0
 20 21  1  0
 21 23  1  0
  2 24  1  0
  3 25  1  0
  4 26  1  0
  7 27  1  0
 10 28  1  0
 12 29  1  0
 15 30  1  0
 16 31  1  0
 17 32  1  0
 21 33  1  6
 21 34  1  0
 22 35  1  1
 22 36  1  0
 22 37  1  0
 23 38  1  1
 23 39  1  0
 23 40  1  0
M  END
>  <Pose ID>  (358)
61

>  <Score>  (358)
-5.824748516082764

>  <smiles>  (358)
CCOc1ncc2[nH]c(Nc3c[nH]c4nc(C)cc-4c3)ccc1-2

$$$$

     RDKit          3D

 32 35  0  0  0  0  0  0  0  0999 V2000
   27.3250    7.9120  -10.2120 C   0  0  0  0  0  0  0  0  0  0  0  0
   28.4260    7.1530  -10.5790 C   0  0  0  0  0  0  0  0  0  0  0  0
   29.4190    7.7110  -11.3730 N   0  0  0  0  0  0  0  0  0  0  0  0
   26.5120    7.1700   -9.4440 N   0  0  0  0  0  0  0  0  0  0  0  0
   29.3130    9.0310  -11.8000 C   0  0  0  0  0  0  0  0  0  0  0  0
   28.2090    9.7890  -11.4310 C   0  0  0  0  0  0  0  0  0  0  0  0
   27.2150    9.2330  -10.6380 C   0  0  0  0  0  0  0  0  0  0  0  0
   30.1300    9.7790  -12.5580 N   0  0  0  0  0  0  0  0  0  0  0  0
   29.6270   10.9620  -12.7010 C   0  0  0  0  0  0  0  0  0  0  0  0
   28.4450   10.9290  -11.9710 C   0  0  0  0  0  0  0  0  0  0  0  0
   25.9290    7.6490   -8.2330 C   0  0  0  0  0  0  0  0  0  0  0  0
   25.2750    6.7390   -7.4100 N   0  0  0  0  0  0  0  0  0  0  0  0
   24.5920    7.1860   -6.2840 C   0  0  0  0  0  0  0  0  0  0  0  0
   24.5640    8.5420   -5.9830 C   0  0  0  0  0  0  0  0  0  0  0  0
   25.2170    9.4530   -6.8080 C   0  0  0  0  0  0  0  0  0  0  0  0
   25.9230    8.9990   -7.9160 C   0  0  0  0  0  0  0  0  0  0  0  0
   24.0090    6.3700   -5.5470 O   0  0  0  0  0  0  0  0  0  0  0  0
   29.9970   12.1230  -13.3700 C   0  0  0  0  0  0  0  0  0  0  0  0
   29.1860   13.2490  -13.3100 C   0  0  0  0  0  0  0  0  0  0  0  0
   28.0030   13.2160  -12.5800 N   0  0  0  0  0  0  0  0  0  0  0  0
   27.6000   12.0700  -11.9240 C   0  0  0  0  0  0  0  0  0  0  0  0
   28.5126    6.1097  -10.2414 H   0  0  0  0  0  0  0  0  0  0  0  0
   30.2360    7.1465  -11.6465 H   0  0  0  0  0  0  0  0  0  0  0  0
   26.2985    6.2079   -9.7434 H   0  0  0  0  0  0  0  0  0  0  0  0
   26.3417    9.8349  -10.3465 H   0  0  0  0  0  0  0  0  0  0  0  0
   25.2963    5.7339   -7.6342 H   0  0  0  0  0  0  0  0  0  0  0  0
   24.0252    8.8960   -5.0917 H   0  0  0  0  0  0  0  0  0  0  0  0
   25.1746   10.5291   -6.5839 H   0  0  0  0  0  0  0  0  0  0  0  0
   26.4782    9.7123   -8.5428 H   0  0  0  0  0  0  0  0  0  0  0  0
   30.9329   12.1500  -13.9474 H   0  0  0  0  0  0  0  0  0  0  0  0
   29.4796   14.1670  -13.8401 H   0  0  0  0  0  0  0  0  0  0  0  0
   26.6460   12.0411  -11.3772 H   0  0  0  0  0  0  0  0  0  0  0  0
  1  7  1  0
  1  2  2  0
  1  4  1  0
  2  3  1  0
  3  5  1  0
  5  8  2  0
  5  6  1  0
  6 10  1  0
  6  7  2  0
  8  9  1  0
  9 18  1  0
  9 10  2  0
 10 21  1  0
 18 19  2  0
 19 20  1  0
 20 21  2  0
  4 11  1  0
 11 16  2  0
 11 12  1  0
 12 13  1  0
 13 14  1  0
 13 17  2  0
 14 15  2  0
 15 16  1  0
  2 22  1  0
  3 23  1  0
  4 24  1  0
  7 25  1  0
 12 26  1  0
 14 27  1  0
 15 28  1  0
 16 29  1  0
 18 30  1  0
 19 31  1  0
 21 32  1  0
M  END
>  <Pose ID>  (359)
104

>  <Score>  (359)
-5.822205066680908

>  <smiles>  (359)
O=c1cccc(Nc2c[nH]c3nc4ccncc4c-3c2)[nH]1

$$$$

     RDKit          3D

 31 34  0  0  0  0  0  0  0  0999 V2000
   27.8020    7.7680  -10.2760 C   0  0  0  0  0  0  0  0  0  0  0  0
   28.7860    7.0850  -10.9810 C   0  0  0  0  0  0  0  0  0  0  0  0
   29.6370    7.7780  -11.8320 N   0  0  0  0  0  0  0  0  0  0  0  0
   29.5080    9.1540  -11.9780 C   0  0  0  0  0  0  0  0  0  0  0  0
   26.9970    6.8990   -9.4220 O   0  0  0  0  0  0  0  0  0  0  0  0
   28.5210    9.8380  -11.2740 C   0  0  0  0  0  0  0  0  0  0  0  0
   27.6720    9.1440  -10.4230 C   0  0  0  0  0  0  0  0  0  0  0  0
   30.2010   10.0320  -12.7300 N   0  0  0  0  0  0  0  0  0  0  0  0
   29.6800   11.2910  -12.5340 C   0  0  0  0  0  0  0  0  0  0  0  0
   28.6480   11.0010  -11.6150 C   0  0  0  0  0  0  0  0  0  0  0  0
   26.1520    7.3630   -8.4050 C   0  0  0  0  0  0  0  0  0  0  0  0
   25.3280    8.4330   -8.7080 N   0  0  0  0  0  0  0  0  0  0  0  0
   24.6370    8.7290   -7.6000 N   0  0  0  0  0  0  0  0  0  0  0  0
   24.9530    7.8700   -6.5560 C   0  0  0  0  0  0  0  0  0  0  0  0
   25.8700    7.0540   -7.0870 C   0  0  0  0  0  0  0  0  0  0  0  0
   23.6880    9.7280   -7.4140 C   0  0  0  0  0  0  0  0  0  0  0  0
   23.0570    9.8670   -6.1830 N   0  0  0  0  0  0  0  0  0  0  0  0
   23.3730    9.0060   -5.1380 C   0  0  0  0  0  0  0  0  0  0  0  0
   24.3220    8.0080   -5.3240 C   0  0  0  0  0  0  0  0  0  0  0  0
   24.6660    7.0740   -4.1910 C   0  0  1  0  0  0  0  0  0  0  0  0
   28.8907    5.9962  -10.8650 H   0  0  0  0  0  0  0  0  0  0  0  0
   30.3649    7.2714  -12.3558 H   0  0  0  0  0  0  0  0  0  0  0  0
   26.8943    9.6844   -9.8635 H   0  0  0  0  0  0  0  0  0  0  0  0
   29.9830   12.2539  -12.9711 H   0  0  0  0  0  0  0  0  0  0  0  0
   27.9881   11.7896  -11.2243 H   0  0  0  0  0  0  0  0  0  0  0  0
   26.3466    6.2293   -6.5368 H   0  0  0  0  0  0  0  0  0  0  0  0
   23.4364   10.4084   -8.2409 H   0  0  0  0  0  0  0  0  0  0  0  0
   22.8722    9.1147   -4.1647 H   0  0  0  0  0  0  0  0  0  0  0  0
   24.4804    7.5780   -3.2311 H   0  0  0  0  0  0  0  0  0  0  0  0
   24.0415    6.1709   -4.2578 H   0  0  0  0  0  0  0  0  0  0  0  0
   25.7271    6.7918   -4.2578 H   0  0  0  0  0  0  0  0  0  0  0  0
  5  1  1  0
  5 11  1  0
  1  2  2  0
  1  7  1  0
  2  3  1  0
  3  4  1  0
  4  8  2  0
  4  6  1  0
  6 10  1  0
  6  7  2  0
  8  9  1  0
  9 10  2  0
 11 12  2  0
 11 15  1  0
 12 13  1  0
 13 16  1  0
 13 14  1  0
 14 15  2  0
 14 19  1  0
 16 17  2  0
 17 18  1  0
 18 19  2  0
 19 20  1  0
  2 21  1  0
  3 22  1  0
  7 23  1  0
  9 24  1  0
 10 25  1  0
 15 26  1  0
 16 27  1  0
 18 28  1  0
 20 29  1  1
 20 30  1  0
 20 31  1  0
M  END
>  <Pose ID>  (360)
276

>  <Score>  (360)
-5.8175201416015625

>  <smiles>  (360)
Cc1cncn2nc(Oc3c[nH]c4nccc-4c3)cc12

$$$$

     RDKit          3D

 37 40  0  0  0  0  0  0  0  0999 V2000
   27.8600    7.9080  -10.2860 C   0  0  0  0  0  0  0  0  0  0  0  0
   28.7970    7.1550  -10.9840 C   0  0  0  0  0  0  0  0  0  0  0  0
   29.6690    7.7760  -11.8680 N   0  0  0  0  0  0  0  0  0  0  0  0
   29.6070    9.1520  -12.0560 C   0  0  0  0  0  0  0  0  0  0  0  0
   27.0260    7.1080   -9.3940 O   0  0  0  0  0  0  0  0  0  0  0  0
   28.6680    9.9070  -11.3590 C   0  0  0  0  0  0  0  0  0  0  0  0
   27.7980    9.2830  -10.4740 C   0  0  0  0  0  0  0  0  0  0  0  0
   30.3310    9.9700  -12.8440 N   0  0  0  0  0  0  0  0  0  0  0  0
   29.8790   11.2600  -12.6800 C   0  0  0  0  0  0  0  0  0  0  0  0
   28.8480   11.0510  -11.7370 C   0  0  0  0  0  0  0  0  0  0  0  0
   26.2220    7.6450   -8.3810 C   0  0  0  0  0  0  0  0  0  0  0  0
   25.4490    8.7460   -8.7060 N   0  0  0  0  0  0  0  0  0  0  0  0
   24.7910    9.1110   -7.5970 N   0  0  0  0  0  0  0  0  0  0  0  0
   25.0790    8.2690   -6.5310 C   0  0  0  0  0  0  0  0  0  0  0  0
   25.9460    7.3910   -7.0500 C   0  0  0  0  0  0  0  0  0  0  0  0
   23.8970   10.1620   -7.4290 C   0  0  0  0  0  0  0  0  0  0  0  0
   23.2930   10.3700   -6.1950 N   0  0  0  0  0  0  0  0  0  0  0  0
   23.5820    9.5270   -5.1280 C   0  0  0  0  0  0  0  0  0  0  0  0
   24.4760    8.4760   -5.2960 C   0  0  0  0  0  0  0  0  0  0  0  0
   22.9260    9.7530   -3.7880 C   0  0  1  0  0  0  0  0  0  0  0  0
   28.0070   12.1920  -11.2220 C   0  0  1  0  0  0  0  0  0  0  0  0
   23.5840   11.0770   -8.5860 C   0  0  1  0  0  0  0  0  0  0  0  0
   28.8476    6.0662  -10.8358 H   0  0  0  0  0  0  0  0  0  0  0  0
   30.3624    7.2167  -12.3850 H   0  0  0  0  0  0  0  0  0  0  0  0
   27.0578    9.8794   -9.9204 H   0  0  0  0  0  0  0  0  0  0  0  0
   30.2239   12.1922  -13.1512 H   0  0  0  0  0  0  0  0  0  0  0  0
   26.3893    6.5603   -6.4813 H   0  0  0  0  0  0  0  0  0  0  0  0
   24.7060    7.8087   -4.4523 H   0  0  0  0  0  0  0  0  0  0  0  0
   23.6373    9.5079   -2.9855 H   0  0  0  0  0  0  0  0  0  0  0  0
   22.6238   10.8071   -3.7008 H   0  0  0  0  0  0  0  0  0  0  0  0
   22.0387    9.1087   -3.7008 H   0  0  0  0  0  0  0  0  0  0  0  0
   28.0127   12.1843  -10.1220 H   0  0  0  0  0  0  0  0  0  0  0  0
   28.4204   13.1448  -11.5842 H   0  0  0  0  0  0  0  0  0  0  0  0
   26.9745   12.0791  -11.5842 H   0  0  0  0  0  0  0  0  0  0  0  0
   23.2503   12.0524   -8.2022 H   0  0  0  0  0  0  0  0  0  0  0  0
   24.4865   11.2137   -9.1999 H   0  0  0  0  0  0  0  0  0  0  0  0
   22.7869   10.6323   -9.1999 H   0  0  0  0  0  0  0  0  0  0  0  0
  5  1  1  0
  5 11  1  0
  1  2  2  0
  1  7  1  0
  2  3  1  0
  3  4  1  0
  4  8  2  0
  4  6  1  0
  6 10  1  0
  6  7  2  0
  8  9  1  0
  9 10  2  0
 10 21  1  0
 11 12  2  0
 11 15  1  0
 12 13  1  0
 13 16  1  0
 13 14  1  0
 14 15  2  0
 14 19  1  0
 16 22  1  0
 16 17  2  0
 17 18  1  0
 18 19  2  0
 18 20  1  0
  2 23  1  0
  3 24  1  0
  7 25  1  0
  9 26  1  0
 15 27  1  0
 19 28  1  0
 20 29  1  1
 20 30  1  0
 20 31  1  0
 21 32  1  1
 21 33  1  0
 21 34  1  0
 22 35  1  1
 22 36  1  0
 22 37  1  0
M  END
>  <Pose ID>  (361)
304

>  <Score>  (361)
-5.817468643188477

>  <smiles>  (361)
Cc1cc2cc(Oc3c[nH]c4ncc(C)c-4c3)nn2c(C)n1

$$$$

     RDKit          3D

 38 41  0  0  0  0  0  0  0  0999 V2000
   27.8630    7.8410  -10.2490 C   0  0  0  0  0  0  0  0  0  0  0  0
   28.8300    7.1240  -10.9420 C   0  0  0  0  0  0  0  0  0  0  0  0
   29.6630    7.7760  -11.8450 N   0  0  0  0  0  0  0  0  0  0  0  0
   29.5300    9.1450  -12.0510 C   0  0  0  0  0  0  0  0  0  0  0  0
   27.0770    7.0150   -9.3370 O   0  0  0  0  0  0  0  0  0  0  0  0
   28.5620    9.8610  -11.3560 C   0  0  0  0  0  0  0  0  0  0  0  0
   27.7290    9.2080  -10.4530 C   0  0  0  0  0  0  0  0  0  0  0  0
   30.2070    9.9870  -12.8570 N   0  0  0  0  0  0  0  0  0  0  0  0
   29.6900   11.2550  -12.7060 C   0  0  0  0  0  0  0  0  0  0  0  0
   28.6800   11.0080  -11.7520 C   0  0  0  0  0  0  0  0  0  0  0  0
   26.2570    7.5240   -8.3240 C   0  0  0  0  0  0  0  0  0  0  0  0
   25.4250    8.5800   -8.6570 N   0  0  0  0  0  0  0  0  0  0  0  0
   24.7700    8.9260   -7.5780 N   0  0  0  0  0  0  0  0  0  0  0  0
   25.0730    8.1680   -6.4550 C   0  0  0  0  0  0  0  0  0  0  0  0
   26.0030    7.2760   -6.9850 C   0  0  0  0  0  0  0  0  0  0  0  0
   23.8290    9.9460   -7.4960 C   0  0  0  0  0  0  0  0  0  0  0  0
   23.1930   10.2090   -6.2880 C   0  0  0  0  0  0  0  0  0  0  0  0
   23.4960    9.4500   -5.1640 C   0  0  0  0  0  0  0  0  0  0  0  0
   24.4360    8.4290   -5.2480 C   0  0  0  0  0  0  0  0  0  0  0  0
   22.8050    9.7340   -3.8530 C   0  0  2  0  0  0  0  0  0  0  0  0
   23.5960    9.1420   -2.6780 C   0  0  1  0  0  0  0  0  0  0  0  0
   21.4110    9.1110   -3.8450 C   0  0  1  0  0  0  0  0  0  0  0  0
   28.9368    6.0417  -10.7768 H   0  0  0  0  0  0  0  0  0  0  0  0
   30.3786    7.2448  -12.3613 H   0  0  0  0  0  0  0  0  0  0  0  0
   26.9646    9.7744   -9.9009 H   0  0  0  0  0  0  0  0  0  0  0  0
   29.9827   12.1969  -13.1930 H   0  0  0  0  0  0  0  0  0  0  0  0
   28.0287   11.8138  -11.3824 H   0  0  0  0  0  0  0  0  0  0  0  0
   26.4795    6.4697   -6.4080 H   0  0  0  0  0  0  0  0  0  0  0  0
   23.5877   10.5448   -8.3866 H   0  0  0  0  0  0  0  0  0  0  0  0
   22.4502   11.0176   -6.2219 H   0  0  0  0  0  0  0  0  0  0  0  0
   24.6755    7.8276   -4.3586 H   0  0  0  0  0  0  0  0  0  0  0  0
   22.7380   10.8265   -3.7437 H   0  0  0  0  0  0  0  0  0  0  0  0
   23.1494    9.4762   -1.7299 H   0  0  0  0  0  0  0  0  0  0  0  0
   23.5645    8.0437   -2.7311 H   0  0  0  0  0  0  0  0  0  0  0  0
   24.6408    9.4819   -2.7311 H   0  0  0  0  0  0  0  0  0  0  0  0
   21.0812    8.9636   -2.8060 H   0  0  0  0  0  0  0  0  0  0  0  0
   20.7073    9.7803   -4.3616 H   0  0  0  0  0  0  0  0  0  0  0  0
   21.4402    8.1403   -4.3616 H   0  0  0  0  0  0  0  0  0  0  0  0
 11  5  1  0
 11 12  2  0
 11 15  1  0
 12 13  1  0
 13 16  1  0
 13 14  1  0
 14 15  2  0
 14 19  1  0
 16 17  2  0
 17 18  1  0
 18 19  2  0
 18 20  1  0
 20 22  1  0
 20 21  1  0
  5  1  1  0
  1  2  2  0
  1  7  1  0
  2  3  1  0
  3  4  1  0
  4  8  2  0
  4  6  1  0
  6 10  1  0
  6  7  2  0
  8  9  1  0
  9 10  2  0
  2 23  1  0
  3 24  1  0
  7 25  1  0
  9 26  1  0
 10 27  1  0
 15 28  1  0
 16 29  1  0
 17 30  1  0
 19 31  1  0
 20 32  1  1
 21 33  1  1
 21 34  1  0
 21 35  1  0
 22 36  1  1
 22 37  1  0
 22 38  1  0
M  END
>  <Pose ID>  (362)
351

>  <Score>  (362)
-5.815256595611572

>  <smiles>  (362)
CC(C)c1ccn2nc(Oc3c[nH]c4nccc-4c3)cc2c1

$$$$

     RDKit          3D

 30 32  0  0  0  0  0  0  0  0999 V2000
   27.2740    7.8660  -10.1930 C   0  0  0  0  0  0  0  0  0  0  0  0
   28.4070    7.1360  -10.5190 C   0  0  0  0  0  0  0  0  0  0  0  0
   29.3860    7.6980  -11.3270 N   0  0  0  0  0  0  0  0  0  0  0  0
   26.4840    7.1240   -9.4010 N   0  0  0  0  0  0  0  0  0  0  0  0
   29.2330    8.9940  -11.8090 C   0  0  0  0  0  0  0  0  0  0  0  0
   28.0980    9.7240  -11.4810 C   0  0  0  0  0  0  0  0  0  0  0  0
   27.1180    9.1630  -10.6730 C   0  0  0  0  0  0  0  0  0  0  0  0
   30.0300    9.7410  -12.5910 N   0  0  0  0  0  0  0  0  0  0  0  0
   29.4310   10.9650  -12.7890 C   0  0  0  0  0  0  0  0  0  0  0  0
   28.2440   10.7920  -12.0480 C   0  0  0  0  0  0  0  0  0  0  0  0
   25.8710    7.6300   -8.2150 C   0  0  0  0  0  0  0  0  0  0  0  0
   25.2440    6.7320   -7.3600 N   0  0  0  0  0  0  0  0  0  0  0  0
   24.5350    7.1970   -6.2590 C   0  0  0  0  0  0  0  0  0  0  0  0
   24.4510    8.5630   -6.0140 C   0  0  0  0  0  0  0  0  0  0  0  0
   25.0770    9.4630   -6.8700 C   0  0  0  0  0  0  0  0  0  0  0  0
   25.8110    8.9920   -7.9540 C   0  0  0  0  0  0  0  0  0  0  0  0
   23.9750    6.3910   -5.4940 O   0  0  0  0  0  0  0  0  0  0  0  0
   27.2020   11.8810  -11.9610 C   0  0  1  0  0  0  0  0  0  0  0  0
   28.5300    6.1117  -10.1374 H   0  0  0  0  0  0  0  0  0  0  0  0
   30.2267    7.1548  -11.5699 H   0  0  0  0  0  0  0  0  0  0  0  0
   26.3118    6.1425   -9.6614 H   0  0  0  0  0  0  0  0  0  0  0  0
   26.2200    9.7426  -10.4128 H   0  0  0  0  0  0  0  0  0  0  0  0
   29.7808   11.8347  -13.3645 H   0  0  0  0  0  0  0  0  0  0  0  0
   25.3048    5.7201   -7.5425 H   0  0  0  0  0  0  0  0  0  0  0  0
   23.8894    8.9320   -5.1431 H   0  0  0  0  0  0  0  0  0  0  0  0
   24.9919   10.5449   -6.6903 H   0  0  0  0  0  0  0  0  0  0  0  0
   26.3446    9.7000   -8.6052 H   0  0  0  0  0  0  0  0  0  0  0  0
   26.9902   12.1023  -10.9045 H   0  0  0  0  0  0  0  0  0  0  0  0
   27.5772   12.7880  -12.4576 H   0  0  0  0  0  0  0  0  0  0  0  0
   26.2793   11.5462  -12.4576 H   0  0  0  0  0  0  0  0  0  0  0  0
  1  7  1  0
  1  2  2  0
  1  4  1  0
  2  3  1  0
  3  5  1  0
  5  8  2  0
  5  6  1  0
  6 10  1  0
  6  7  2  0
  8  9  1  0
  9 10  2  0
 10 18  1  0
  4 11  1  0
 11 16  2  0
 11 12  1  0
 12 13  1  0
 13 14  1  0
 13 17  2  0
 14 15  2  0
 15 16  1  0
  2 19  1  0
  3 20  1  0
  4 21  1  0
  7 22  1  0
  9 23  1  0
 12 24  1  0
 14 25  1  0
 15 26  1  0
 16 27  1  0
 18 28  1  1
 18 29  1  0
 18 30  1  0
M  END
>  <Pose ID>  (363)
94

>  <Score>  (363)
-5.81488561630249

>  <smiles>  (363)
Cc1cnc2[nH]cc(Nc3cccc(=O)[nH]3)cc1-2

$$$$

     RDKit          3D

 37 39  0  0  0  0  0  0  0  0999 V2000
   28.0010    7.8760   -9.9280 C   0  0  0  0  0  0  0  0  0  0  0  0
   26.9740    6.9530  -10.0490 N   0  0  0  0  0  0  0  0  0  0  0  0
   26.1750    6.6500   -8.9530 C   0  0  0  0  0  0  0  0  0  0  0  0
   28.2340    8.5040   -8.7080 N   0  0  0  0  0  0  0  0  0  0  0  0
   26.4080    7.2760   -7.7320 C   0  0  0  0  0  0  0  0  0  0  0  0
   27.3510    8.1930   -7.6050 C   0  0  0  0  0  0  0  0  0  0  0  0
   28.7180    8.1480  -10.9090 O   0  0  0  0  0  0  0  0  0  0  0  0
   25.6450    6.9370   -6.6410 N   0  0  0  0  0  0  0  0  0  0  0  0
   24.4510    7.5820   -6.2530 C   0  0  0  0  0  0  0  0  0  0  0  0
   23.2360    6.9510   -6.0110 N   0  0  0  0  0  0  0  0  0  0  0  0
   22.1280    7.6990   -5.6250 C   0  0  0  0  0  0  0  0  0  0  0  0
   22.2400    9.0780   -5.4790 C   0  0  0  0  0  0  0  0  0  0  0  0
   23.4550    9.7070   -5.7200 C   0  0  0  0  0  0  0  0  0  0  0  0
   24.5670    8.9530   -6.0780 C   0  0  0  0  0  0  0  0  0  0  0  0
   20.9940    9.5990   -5.0860 C   0  0  0  0  0  0  0  0  0  0  0  0
   19.7910    9.0150   -5.3160 O   0  0  0  0  0  0  0  0  0  0  0  0
   20.9030   10.5780   -4.1420 N   0  0  0  0  0  0  0  0  0  0  0  0
   18.9200    9.6960   -4.4440 C   0  0  0  0  0  0  0  0  0  0  0  0
   19.6060   10.6650   -3.7300 C   0  0  0  0  0  0  0  0  0  0  0  0
   19.0380   11.6170   -2.7070 C   0  0  1  0  0  0  0  0  0  0  0  0
   23.5670   11.2060   -5.5900 C   0  0  1  0  0  0  0  0  0  0  0  0
   22.5340   12.0120   -6.3660 C   0  0  1  0  0  0  0  0  0  0  0  0
   25.3604    5.9172   -9.0503 H   0  0  0  0  0  0  0  0  0  0  0  0
   29.0114    9.1699   -8.5939 H   0  0  0  0  0  0  0  0  0  0  0  0
   27.4659    8.7260   -6.6496 H   0  0  0  0  0  0  0  0  0  0  0  0
   25.9697    6.1505   -6.0607 H   0  0  0  0  0  0  0  0  0  0  0  0
   21.1656    7.2011   -5.4357 H   0  0  0  0  0  0  0  0  0  0  0  0
   25.5403    9.4446   -6.2227 H   0  0  0  0  0  0  0  0  0  0  0  0
   17.8446    9.4876   -4.3437 H   0  0  0  0  0  0  0  0  0  0  0  0
   19.2603   11.2444   -1.6962 H   0  0  0  0  0  0  0  0  0  0  0  0
   19.4910   12.6106   -2.8394 H   0  0  0  0  0  0  0  0  0  0  0  0
   17.9485   11.6902   -2.8394 H   0  0  0  0  0  0  0  0  0  0  0  0
   23.4658   11.4620   -4.5250 H   0  0  0  0  0  0  0  0  0  0  0  0
   24.5433   11.4736   -6.0205 H   0  0  0  0  0  0  0  0  0  0  0  0
   21.8686   12.5312   -5.6605 H   0  0  0  0  0  0  0  0  0  0  0  0
   23.0461   12.7516   -6.9990 H   0  0  0  0  0  0  0  0  0  0  0  0
   21.9411   11.3354   -6.9990 H   0  0  0  0  0  0  0  0  0  0  0  0
  8  5  1  0
  8  9  1  0
  9 14  1  0
  9 10  2  0
 10 11  1  0
 11 12  2  0
 12 13  1  0
 12 15  1  0
 13 14  2  0
 13 21  1  0
  1  7  2  0
  1  2  1  0
  1  4  1  0
  2  3  2  0
  3  5  1  0
  4  6  1  0
  5  6  2  0
 15 16  1  0
 15 17  2  0
 16 18  1  0
 17 19  1  0
 18 19  2  0
 19 20  1  0
 21 22  1  0
  3 23  1  0
  4 24  1  0
  6 25  1  0
  8 26  1  0
 11 27  1  0
 14 28  1  0
 18 29  1  0
 20 30  1  1
 20 31  1  0
 20 32  1  0
 21 33  1  1
 21 34  1  0
 22 35  1  1
 22 36  1  0
 22 37  1  0
M  END
>  <Pose ID>  (364)
113

>  <Score>  (364)
-5.814765453338623

>  <smiles>  (364)
CCc1cc(Nc2cnc(=O)[nH]c2)ncc1-c1nc(C)co1

$$$$

     RDKit          3D

 38 41  0  0  0  0  0  0  0  0999 V2000
   27.4880    7.7200   -9.7970 C   0  0  0  0  0  0  0  0  0  0  0  0
   26.7310    6.7800   -9.1130 N   0  0  0  0  0  0  0  0  0  0  0  0
   26.0310    7.1490   -7.9700 C   0  0  0  0  0  0  0  0  0  0  0  0
   25.3400    6.1500   -7.3390 C   0  0  0  0  0  0  0  0  0  0  0  0
   24.5960    6.4130   -6.1960 N   0  0  0  0  0  0  0  0  0  0  0  0
   24.5540    7.6980   -5.6750 C   0  0  0  0  0  0  0  0  0  0  0  0
   25.2580    8.7270   -6.2940 C   0  0  0  0  0  0  0  0  0  0  0  0
   26.0880    8.4600   -7.5140 C   0  0  0  0  0  0  0  0  0  0  0  0
   27.5480    9.0320   -9.3390 C   0  0  0  0  0  0  0  0  0  0  0  0
   26.8470    9.4030   -8.1980 C   0  0  0  0  0  0  0  0  0  0  0  0
   28.2560    7.6040  -10.9310 N   0  0  0  0  0  0  0  0  0  0  0  0
   28.9770    8.4520  -11.5520 C   0  0  0  0  0  0  0  0  0  0  0  0
   30.3700    8.4090  -11.7320 N   0  0  0  0  0  0  0  0  0  0  0  0
   30.6870    9.5080  -12.4230 O   0  0  0  0  0  0  0  0  0  0  0  0
   29.6490   10.2130  -12.6970 C   0  0  0  0  0  0  0  0  0  0  0  0
   28.5280    9.5550  -12.1910 C   0  0  0  0  0  0  0  0  0  0  0  0
   23.7980    7.9610   -4.5180 C   0  0  0  0  0  0  0  0  0  0  0  0
   22.7360    8.7940   -4.5570 N   0  0  0  0  0  0  0  0  0  0  0  0
   24.0230    7.2510   -3.2400 C   0  0  0  0  0  0  0  0  0  0  0  0
   23.2970    7.6090   -2.3690 C   0  0  0  0  0  0  0  0  0  0  0  0
   22.2280    8.6260   -3.2220 C   0  0  0  0  0  0  0  0  0  0  0  0
   22.1700    9.6210   -5.5800 C   0  0  1  0  0  0  0  0  0  0  0  0
   26.9090   10.8260   -7.7030 C   0  0  1  0  0  0  0  0  0  0  0  0
   25.3743    5.1270   -7.7418 H   0  0  0  0  0  0  0  0  0  0  0  0
   25.2049    9.7464   -5.8840 H   0  0  0  0  0  0  0  0  0  0  0  0
   28.1506    9.7762   -9.8803 H   0  0  0  0  0  0  0  0  0  0  0  0
   28.2473    6.6650  -11.3541 H   0  0  0  0  0  0  0  0  0  0  0  0
   29.6447   11.1709  -13.2377 H   0  0  0  0  0  0  0  0  0  0  0  0
   27.4798    9.8728  -12.2926 H   0  0  0  0  0  0  0  0  0  0  0  0
   24.7860    6.4696   -3.1085 H   0  0  0  0  0  0  0  0  0  0  0  0
   23.3115    7.3525   -1.2994 H   0  0  0  0  0  0  0  0  0  0  0  0
   21.3081    9.0763   -2.8207 H   0  0  0  0  0  0  0  0  0  0  0  0
   21.6067   10.4441   -5.1162 H   0  0  0  0  0  0  0  0  0  0  0  0
   22.9755   10.0343   -6.2048 H   0  0  0  0  0  0  0  0  0  0  0  0
   21.4931    9.0198   -6.2048 H   0  0  0  0  0  0  0  0  0  0  0  0
   26.9093   10.8319   -6.6030 H   0  0  0  0  0  0  0  0  0  0  0  0
   27.8288   11.3030   -8.0724 H   0  0  0  0  0  0  0  0  0  0  0  0
   26.0342   11.3812   -8.0724 H   0  0  0  0  0  0  0  0  0  0  0  0
  1 11  1  0
  1  9  1  0
  1  2  2  0
  2  3  1  0
  3  8  2  0
  3  4  1  0
  4  5  2  0
  5  6  1  0
  6  7  2  0
  6 17  1  0
  7  8  1  0
  8 10  1  0
  9 10  2  0
 10 23  1  0
 11 12  1  0
 12 16  1  0
 12 13  2  0
 13 14  1  0
 14 15  1  0
 15 16  2  0
 17 18  1  0
 17 19  2  0
 18 22  1  0
 18 21  1  0
 19 20  1  0
 20 21  2  0
  4 24  1  0
  7 25  1  0
  9 26  1  0
 11 27  1  0
 15 28  1  0
 16 29  1  0
 19 30  1  0
 20 31  1  0
 21 32  1  0
 22 33  1  1
 22 34  1  0
 22 35  1  0
 23 36  1  1
 23 37  1  0
 23 38  1  0
M  END
>  <Pose ID>  (365)
28

>  <Score>  (365)
-5.813949108123779

>  <smiles>  (365)
Cc1cc(Nc2ccon2)nc2cnc(-c3cccn3C)cc12

$$$$

     RDKit          3D

 29 31  0  0  0  0  0  0  0  0999 V2000
   26.7560    8.9380  -10.3920 C   0  0  0  0  0  0  0  0  0  0  0  0
   27.4130    7.7260  -10.2010 C   0  0  0  0  0  0  0  0  0  0  0  0
   28.6640    7.5170  -10.7730 N   0  0  0  0  0  0  0  0  0  0  0  0
   25.5400    9.4620   -9.9710 N   0  0  0  0  0  0  0  0  0  0  0  0
   29.2560    8.5150  -11.5380 C   0  0  0  0  0  0  0  0  0  0  0  0
   28.5980    9.7240  -11.7310 C   0  0  0  0  0  0  0  0  0  0  0  0
   27.3480    9.9340  -11.1580 C   0  0  0  0  0  0  0  0  0  0  0  0
   30.4350    8.5480  -12.1820 N   0  0  0  0  0  0  0  0  0  0  0  0
   30.5670    9.7680  -12.8050 C   0  0  0  0  0  0  0  0  0  0  0  0
   29.3460   10.3750  -12.4370 C   0  0  0  0  0  0  0  0  0  0  0  0
   25.1970    9.8060   -8.5720 C   0  0  0  0  0  0  0  0  0  0  0  0
   24.0010   10.3170   -8.0960 N   0  0  0  0  0  0  0  0  0  0  0  0
   23.8560   10.6310   -6.7500 C   0  0  0  0  0  0  0  0  0  0  0  0
   24.9090   10.3960   -5.8720 C   0  0  0  0  0  0  0  0  0  0  0  0
   26.1050    9.8700   -6.3440 C   0  0  0  0  0  0  0  0  0  0  0  0
   26.2480    9.5740   -7.6930 N   0  0  0  0  0  0  0  0  0  0  0  0
   27.0470    9.6640   -5.5580 O   0  0  0  0  0  0  0  0  0  0  0  0
   24.7530   10.7140   -4.4060 C   0  0  1  0  0  0  0  0  0  0  0  0
   26.9438    6.9343   -9.5985 H   0  0  0  0  0  0  0  0  0  0  0  0
   29.1521    6.6214  -10.6293 H   0  0  0  0  0  0  0  0  0  0  0  0
   24.8197    9.6241  -10.6892 H   0  0  0  0  0  0  0  0  0  0  0  0
   26.8273   10.8907  -11.3118 H   0  0  0  0  0  0  0  0  0  0  0  0
   31.3920   10.1603  -13.4177 H   0  0  0  0  0  0  0  0  0  0  0  0
   29.0832   11.3890  -12.7728 H   0  0  0  0  0  0  0  0  0  0  0  0
   22.9140   11.0629   -6.3811 H   0  0  0  0  0  0  0  0  0  0  0  0
   27.1340    9.1820   -8.0426 H   0  0  0  0  0  0  0  0  0  0  0  0
   25.1591    9.8863   -3.8060 H   0  0  0  0  0  0  0  0  0  0  0  0
   25.2994   11.6394   -4.1714 H   0  0  0  0  0  0  0  0  0  0  0  0
   23.6867   10.8483   -4.1714 H   0  0  0  0  0  0  0  0  0  0  0  0
  4  1  1  0
  4 11  1  0
 11 12  2  0
 11 16  1  0
 12 13  1  0
 13 14  2  0
 14 15  1  0
 14 18  1  0
 15 16  1  0
 15 17  2  0
  1  7  1  0
  1  2  2  0
  2  3  1  0
  3  5  1  0
  5  8  2  0
  5  6  1  0
  6 10  1  0
  6  7  2  0
  8  9  1  0
  9 10  2  0
  2 19  1  0
  3 20  1  0
  4 21  1  0
  7 22  1  0
  9 23  1  0
 10 24  1  0
 13 25  1  0
 16 26  1  0
 18 27  1  1
 18 28  1  0
 18 29  1  0
M  END
>  <Pose ID>  (366)
15

>  <Score>  (366)
-5.811486721038818

>  <smiles>  (366)
Cc1cnc(Nc2c[nH]c3nccc-3c2)[nH]c1=O

$$$$

     RDKit          3D

 35 38  0  0  0  0  0  0  0  0999 V2000
   27.3240    7.8910  -10.1890 C   0  0  0  0  0  0  0  0  0  0  0  0
   28.4430    7.1450  -10.5240 C   0  0  0  0  0  0  0  0  0  0  0  0
   29.4350    7.7000  -11.3210 N   0  0  0  0  0  0  0  0  0  0  0  0
   26.5160    7.1540   -9.4110 N   0  0  0  0  0  0  0  0  0  0  0  0
   29.3080    9.0060  -11.7830 C   0  0  0  0  0  0  0  0  0  0  0  0
   28.1870    9.7530  -11.4450 C   0  0  0  0  0  0  0  0  0  0  0  0
   27.1940    9.2000  -10.6490 C   0  0  0  0  0  0  0  0  0  0  0  0
   30.1220    9.7500  -12.5500 N   0  0  0  0  0  0  0  0  0  0  0  0
   29.5900   10.9290  -12.7260 C   0  0  0  0  0  0  0  0  0  0  0  0
   28.3840   10.8700  -12.0410 C   0  0  0  0  0  0  0  0  0  0  0  0
   25.9100    7.6520   -8.2180 C   0  0  0  0  0  0  0  0  0  0  0  0
   25.2630    6.7520   -7.3780 N   0  0  0  0  0  0  0  0  0  0  0  0
   24.5600    7.2150   -6.2730 C   0  0  0  0  0  0  0  0  0  0  0  0
   24.5040    8.5790   -6.0060 C   0  0  0  0  0  0  0  0  0  0  0  0
   25.1490    9.4800   -6.8470 C   0  0  0  0  0  0  0  0  0  0  0  0
   25.8770    9.0110   -7.9370 C   0  0  0  0  0  0  0  0  0  0  0  0
   23.9830    6.4080   -5.5220 O   0  0  0  0  0  0  0  0  0  0  0  0
   29.9500   12.0880  -13.4040 C   0  0  0  0  0  0  0  0  0  0  0  0
   29.1020   13.1880  -13.3950 C   0  0  0  0  0  0  0  0  0  0  0  0
   27.8950   13.1310  -12.7100 C   0  0  0  0  0  0  0  0  0  0  0  0
   27.5350   11.9720  -12.0330 N   0  0  0  0  0  0  0  0  0  0  0  0
   26.9740   14.3260  -12.7010 C   0  0  1  0  0  0  0  0  0  0  0  0
   28.5452    6.1126  -10.1582 H   0  0  0  0  0  0  0  0  0  0  0  0
   30.2656    7.1444  -11.5704 H   0  0  0  0  0  0  0  0  0  0  0  0
   26.3235    6.1809   -9.6883 H   0  0  0  0  0  0  0  0  0  0  0  0
   26.3069    9.7931  -10.3819 H   0  0  0  0  0  0  0  0  0  0  0  0
   25.3051    5.7419   -7.5753 H   0  0  0  0  0  0  0  0  0  0  0  0
   23.9495    8.9453   -5.1295 H   0  0  0  0  0  0  0  0  0  0  0  0
   25.0840   10.5605   -6.6512 H   0  0  0  0  0  0  0  0  0  0  0  0
   26.4265    9.7179   -8.5761 H   0  0  0  0  0  0  0  0  0  0  0  0
   30.9055   12.1339  -13.9471 H   0  0  0  0  0  0  0  0  0  0  0  0
   29.3866   14.1054  -13.9310 H   0  0  0  0  0  0  0  0  0  0  0  0
   26.7540   14.6115  -11.6617 H   0  0  0  0  0  0  0  0  0  0  0  0
   27.4597   15.1671  -13.2173 H   0  0  0  0  0  0  0  0  0  0  0  0
   26.0369   14.0706  -13.2173 H   0  0  0  0  0  0  0  0  0  0  0  0
  1  7  1  0
  1  2  2  0
  1  4  1  0
  2  3  1  0
  3  5  1  0
  5  8  2  0
  5  6  1  0
  6 10  1  0
  6  7  2  0
  8  9  1  0
  9 18  1  0
  9 10  2  0
 10 21  1  0
 18 19  2  0
 19 20  1  0
 20 22  1  0
 20 21  2  0
  4 11  1  0
 11 16  2  0
 11 12  1  0
 12 13  1  0
 13 14  1  0
 13 17  2  0
 14 15  2  0
 15 16  1  0
  2 23  1  0
  3 24  1  0
  4 25  1  0
  7 26  1  0
 12 27  1  0
 14 28  1  0
 15 29  1  0
 16 30  1  0
 18 31  1  0
 19 32  1  0
 22 33  1  1
 22 34  1  0
 22 35  1  0
M  END
>  <Pose ID>  (367)
98

>  <Score>  (367)
-5.805378437042236

>  <smiles>  (367)
Cc1ccc2nc3[nH]cc(Nc4cccc(=O)[nH]4)cc-3c2n1

$$$$

     RDKit          3D

 40 42  0  0  0  0  0  0  0  0999 V2000
   27.9990    9.7190  -11.1980 C   0  0  0  0  0  0  0  0  0  0  0  0
   28.6630    8.5040  -11.0740 C   0  0  0  0  0  0  0  0  0  0  0  0
   28.2160    7.5020  -10.2240 N   0  0  0  0  0  0  0  0  0  0  0  0
   27.0410    7.6970   -9.5060 C   0  0  0  0  0  0  0  0  0  0  0  0
   26.3340    8.8850   -9.6410 C   0  0  0  0  0  0  0  0  0  0  0  0
   26.7910    9.8630  -10.5040 C   0  0  0  0  0  0  0  0  0  0  0  0
   26.6240    6.8090   -8.7480 O   0  0  0  0  0  0  0  0  0  0  0  0
   29.8390    8.2800  -11.7790 N   0  0  0  0  0  0  0  0  0  0  0  0
   30.3470    9.2670  -12.6120 C   0  0  0  0  0  0  0  0  0  0  0  0
   29.6820   10.4820  -12.7380 C   0  0  0  0  0  0  0  0  0  0  0  0
   28.5040   10.7060  -12.0190 C   0  0  0  0  0  0  0  0  0  0  0  0
   25.1790    9.3180   -9.0400 N   0  0  0  0  0  0  0  0  0  0  0  0
   25.0660    9.4590   -7.5560 C   0  0  0  0  0  0  0  0  0  0  0  0
   24.3550    8.4840   -6.8670 C   0  0  0  0  0  0  0  0  0  0  0  0
   24.2150    8.5720   -5.4880 C   0  0  0  0  0  0  0  0  0  0  0  0
   24.7890    9.6350   -4.7980 C   0  0  0  0  0  0  0  0  0  0  0  0
   25.4980   10.6090   -5.4870 C   0  0  0  0  0  0  0  0  0  0  0  0
   25.6390   10.5210   -6.8670 N   0  0  0  0  0  0  0  0  0  0  0  0
   28.0450   11.9640  -12.2930 N   0  0  0  0  0  0  0  0  0  0  0  0
   27.7020   12.3360  -13.6740 C   0  0  1  0  0  0  0  0  0  0  0  0
   28.1420   13.0480  -11.2120 C   0  0  1  0  0  0  0  0  0  0  0  0
   23.4760    7.5010   -5.0400 O   0  0  0  0  0  0  0  0  0  0  0  0
   22.7730    6.6150   -5.7760 C   0  0  1  0  0  0  0  0  0  0  0  0
   28.7477    6.6253  -10.1262 H   0  0  0  0  0  0  0  0  0  0  0  0
   26.1928   10.7746  -10.6490 H   0  0  0  0  0  0  0  0  0  0  0  0
   31.2762    9.0882  -13.1729 H   0  0  0  0  0  0  0  0  0  0  0  0
   30.0813   11.2638  -13.4008 H   0  0  0  0  0  0  0  0  0  0  0  0
   24.3666    9.5526   -9.6281 H   0  0  0  0  0  0  0  0  0  0  0  0
   23.9033    7.6430   -7.4134 H   0  0  0  0  0  0  0  0  0  0  0  0
   24.6808    9.7035   -3.7055 H   0  0  0  0  0  0  0  0  0  0  0  0
   25.9485   11.4509   -4.9408 H   0  0  0  0  0  0  0  0  0  0  0  0
   26.9564   13.1446  -13.6615 H   0  0  0  0  0  0  0  0  0  0  0  0
   28.6068   12.6796  -14.1967 H   0  0  0  0  0  0  0  0  0  0  0  0
   27.2862   11.4620  -14.1967 H   0  0  0  0  0  0  0  0  0  0  0  0
   28.1000   12.5792  -10.2178 H   0  0  0  0  0  0  0  0  0  0  0  0
   29.0923   13.5910  -11.3215 H   0  0  0  0  0  0  0  0  0  0  0  0
   27.3032   13.7511  -11.3215 H   0  0  0  0  0  0  0  0  0  0  0  0
   22.2304    5.9311   -5.1067 H   0  0  0  0  0  0  0  0  0  0  0  0
   22.0542    7.1541   -6.4106 H   0  0  0  0  0  0  0  0  0  0  0  0
   23.4613    6.0376   -6.4106 H   0  0  0  0  0  0  0  0  0  0  0  0
  1 11  1  0
  1  2  2  0
  1  6  1  0
  2  8  1  0
  2  3  1  0
  3  4  1  0
  4  5  1  0
  4  7  2  0
  5  6  2  0
  5 12  1  0
  8  9  2  0
  9 10  1  0
 10 11  2  0
 11 19  1  0
 19 20  1  0
 19 21  1  0
 12 13  1  0
 13 14  2  0
 13 18  1  0
 14 15  1  0
 15 22  1  0
 15 16  2  0
 16 17  1  0
 17 18  2  0
 22 23  1  0
  3 24  1  0
  6 25  1  0
  9 26  1  0
 10 27  1  0
 12 28  1  0
 14 29  1  0
 16 30  1  0
 17 31  1  0
 20 32  1  1
 20 33  1  0
 20 34  1  0
 21 35  1  1
 21 36  1  0
 21 37  1  0
 23 38  1  1
 23 39  1  0
 23 40  1  0
M  END
>  <Pose ID>  (368)
165

>  <Score>  (368)
-5.802840709686279

>  <smiles>  (368)
COc1ccnc(Nc2cc3c(N(C)C)ccnc3[nH]c2=O)c1

$$$$

     RDKit          3D

 37 40  0  0  0  0  0  0  0  0999 V2000
   27.8590    7.8520  -10.2500 C   0  0  0  0  0  0  0  0  0  0  0  0
   28.8370    7.1340  -10.9270 C   0  0  0  0  0  0  0  0  0  0  0  0
   29.6750    7.7790  -11.8260 N   0  0  0  0  0  0  0  0  0  0  0  0
   29.5370    9.1450  -12.0500 C   0  0  0  0  0  0  0  0  0  0  0  0
   27.0680    7.0310   -9.3380 O   0  0  0  0  0  0  0  0  0  0  0  0
   28.5560    9.8640  -11.3740 C   0  0  0  0  0  0  0  0  0  0  0  0
   27.7210    9.2160  -10.4740 C   0  0  0  0  0  0  0  0  0  0  0  0
   30.2170    9.9810  -12.8590 N   0  0  0  0  0  0  0  0  0  0  0  0
   29.6930   11.2470  -12.7290 C   0  0  0  0  0  0  0  0  0  0  0  0
   28.6730   11.0060  -11.7820 C   0  0  0  0  0  0  0  0  0  0  0  0
   26.2330    7.5480   -8.3390 C   0  0  0  0  0  0  0  0  0  0  0  0
   25.4020    8.5960   -8.6920 N   0  0  0  0  0  0  0  0  0  0  0  0
   24.7210    8.9530   -7.5950 N   0  0  0  0  0  0  0  0  0  0  0  0
   25.0550    8.1560   -6.5070 C   0  0  0  0  0  0  0  0  0  0  0  0
   25.9690    7.3140   -7.0010 C   0  0  0  0  0  0  0  0  0  0  0  0
   23.7710    9.9570   -7.4530 C   0  0  0  0  0  0  0  0  0  0  0  0
   23.1530   10.1640   -6.2260 N   0  0  0  0  0  0  0  0  0  0  0  0
   23.4870    9.3650   -5.1370 C   0  0  0  0  0  0  0  0  0  0  0  0
   24.4370    8.3610   -5.2770 C   0  0  0  0  0  0  0  0  0  0  0  0
   22.8160    9.5890   -3.8040 C   0  0  1  0  0  0  0  0  0  0  0  0
   21.9640   10.8740   -3.7860 C   0  0  1  0  0  0  0  0  0  0  0  0
   27.7700   12.1130  -11.2970 C   0  0  1  0  0  0  0  0  0  0  0  0
   28.9472    6.0539  -10.7504 H   0  0  0  0  0  0  0  0  0  0  0  0
   30.3996    7.2459  -12.3276 H   0  0  0  0  0  0  0  0  0  0  0  0
   26.9477    9.7844   -9.9365 H   0  0  0  0  0  0  0  0  0  0  0  0
   29.9865   12.1844  -13.2241 H   0  0  0  0  0  0  0  0  0  0  0  0
   26.4561    6.5243   -6.4102 H   0  0  0  0  0  0  0  0  0  0  0  0
   23.5077   10.5892   -8.3138 H   0  0  0  0  0  0  0  0  0  0  0  0
   24.7005    7.7286   -4.4164 H   0  0  0  0  0  0  0  0  0  0  0  0
   22.1645    8.7296   -3.5871 H   0  0  0  0  0  0  0  0  0  0  0  0
   23.6044    9.6974   -3.0446 H   0  0  0  0  0  0  0  0  0  0  0  0
   21.7681   11.1695   -2.7447 H   0  0  0  0  0  0  0  0  0  0  0  0
   22.5066   11.6809   -4.3002 H   0  0  0  0  0  0  0  0  0  0  0  0
   21.0095   10.6883   -4.3002 H   0  0  0  0  0  0  0  0  0  0  0  0
   27.7613   12.1237  -10.1971 H   0  0  0  0  0  0  0  0  0  0  0  0
   28.1411   13.0789  -11.6701 H   0  0  0  0  0  0  0  0  0  0  0  0
   26.7492   11.9435  -11.6701 H   0  0  0  0  0  0  0  0  0  0  0  0
  5  1  1  0
  5 11  1  0
  1  2  2  0
  1  7  1  0
  2  3  1  0
  3  4  1  0
  4  8  2  0
  4  6  1  0
  6 10  1  0
  6  7  2  0
  8  9  1  0
  9 10  2  0
 10 22  1  0
 11 12  2  0
 11 15  1  0
 12 13  1  0
 13 16  1  0
 13 14  1  0
 14 15  2  0
 14 19  1  0
 16 17  2  0
 17 18  1  0
 18 19  2  0
 18 20  1  0
 20 21  1  0
  2 23  1  0
  3 24  1  0
  7 25  1  0
  9 26  1  0
 15 27  1  0
 16 28  1  0
 19 29  1  0
 20 30  1  1
 20 31  1  0
 21 32  1  1
 21 33  1  0
 21 34  1  0
 22 35  1  1
 22 36  1  0
 22 37  1  0
M  END
>  <Pose ID>  (369)
298

>  <Score>  (369)
-5.802011013031006

>  <smiles>  (369)
CCc1cc2cc(Oc3c[nH]c4ncc(C)c-4c3)nn2cn1

$$$$

     RDKit          3D

 14 14  0  0  0  0  0  0  0  0999 V2000
   28.5970    9.6230  -11.9070 C   0  0  0  0  0  0  0  0  0  0  0  0
   29.2620    8.4130  -11.7470 C   0  0  0  0  0  0  0  0  0  0  0  0
   28.7560    7.4520  -10.8790 N   0  0  0  0  0  0  0  0  0  0  0  0
   27.4270    9.8730  -11.2010 N   0  0  0  0  0  0  0  0  0  0  0  0
   27.5870    7.7020  -10.1720 C   0  0  0  0  0  0  0  0  0  0  0  0
   26.9210    8.9110  -10.3330 C   0  0  0  0  0  0  0  0  0  0  0  0
   27.1350    6.8420   -9.3950 O   0  0  0  0  0  0  0  0  0  0  0  0
   30.5320    8.1430  -12.5150 C   0  0  1  0  0  0  0  0  0  0  0  0
   28.9976   10.3835  -12.5934 H   0  0  0  0  0  0  0  0  0  0  0  0
   29.2480    6.5549  -10.7603 H   0  0  0  0  0  0  0  0  0  0  0  0
   25.9940    9.1072   -9.7742 H   0  0  0  0  0  0  0  0  0  0  0  0
   31.3571    7.9676  -11.8090 H   0  0  0  0  0  0  0  0  0  0  0  0
   30.3957    7.2538  -13.1480 H   0  0  0  0  0  0  0  0  0  0  0  0
   30.7692    9.0108  -13.1480 H   0  0  0  0  0  0  0  0  0  0  0  0
  1  2  2  0
  1  4  1  0
  2  8  1  0
  2  3  1  0
  3  5  1  0
  4  6  2  0
  5  6  1  0
  5  7  2  0
  1  9  1  0
  3 10  1  0
  6 11  1  0
  8 12  1  1
  8 13  1  0
  8 14  1  0
M  END
>  <Pose ID>  (370)
141

>  <Score>  (370)
-5.799674034118652

>  <smiles>  (370)
Cc1cncc(=O)[nH]1

$$$$

     RDKit          3D

 36 39  0  0  0  0  0  0  0  0999 V2000
   27.7970    7.8440  -10.2690 C   0  0  0  0  0  0  0  0  0  0  0  0
   28.6410    7.1130  -11.0950 C   0  0  0  0  0  0  0  0  0  0  0  0
   29.4580    7.7700  -12.0090 N   0  0  0  0  0  0  0  0  0  0  0  0
   29.4300    9.1560  -12.0970 C   0  0  0  0  0  0  0  0  0  0  0  0
   27.0140    7.0110   -9.3610 O   0  0  0  0  0  0  0  0  0  0  0  0
   28.5830    9.8870  -11.2700 C   0  0  0  0  0  0  0  0  0  0  0  0
   27.7690    9.2320  -10.3560 C   0  0  0  0  0  0  0  0  0  0  0  0
   30.1130   10.0050  -12.8880 N   0  0  0  0  0  0  0  0  0  0  0  0
   29.7240   11.2940  -12.5970 C   0  0  0  0  0  0  0  0  0  0  0  0
   28.7710   11.0510  -11.5840 C   0  0  0  0  0  0  0  0  0  0  0  0
   26.3210    7.4980   -8.2470 C   0  0  0  0  0  0  0  0  0  0  0  0
   25.5620    8.6440   -8.4270 N   0  0  0  0  0  0  0  0  0  0  0  0
   24.9900    8.9710   -7.2110 N   0  0  0  0  0  0  0  0  0  0  0  0
   25.3670    8.0560   -6.3070 C   0  0  0  0  0  0  0  0  0  0  0  0
   26.1500    7.1600   -6.9150 C   0  0  0  0  0  0  0  0  0  0  0  0
   24.1880   10.0440   -7.0030 C   0  0  0  0  0  0  0  0  0  0  0  0
   24.6670   11.3040   -7.3410 C   0  0  0  0  0  0  0  0  0  0  0  0
   23.0710    9.9230   -6.1860 C   0  0  0  0  0  0  0  0  0  0  0  0
   24.0280   12.4420   -6.8640 C   0  0  0  0  0  0  0  0  0  0  0  0
   22.9120   12.3210   -6.0460 C   0  0  0  0  0  0  0  0  0  0  0  0
   22.4360   11.0680   -5.7100 N   0  0  0  0  0  0  0  0  0  0  0  0
   22.6410    8.7970   -5.8790 O   0  0  0  0  0  0  0  0  0  0  0  0
   30.1880   12.6000  -13.1940 C   0  0  1  0  0  0  0  0  0  0  0  0
   28.6633    6.0154  -11.0264 H   0  0  0  0  0  0  0  0  0  0  0  0
   30.0845    7.2282  -12.6213 H   0  0  0  0  0  0  0  0  0  0  0  0
   27.1017    9.8107   -9.7004 H   0  0  0  0  0  0  0  0  0  0  0  0
   28.2233   11.8731  -11.1002 H   0  0  0  0  0  0  0  0  0  0  0  0
   25.0805    8.0446   -5.2450 H   0  0  0  0  0  0  0  0  0  0  0  0
   26.5949    6.2801   -6.4274 H   0  0  0  0  0  0  0  0  0  0  0  0
   25.5525   11.4005   -7.9865 H   0  0  0  0  0  0  0  0  0  0  0  0
   24.4061   13.4390   -7.1343 H   0  0  0  0  0  0  0  0  0  0  0  0
   22.4076   13.2217   -5.6660 H   0  0  0  0  0  0  0  0  0  0  0  0
   21.6074   10.9801   -5.1045 H   0  0  0  0  0  0  0  0  0  0  0  0
   30.4381   13.3039  -12.3866 H   0  0  0  0  0  0  0  0  0  0  0  0
   31.0784   12.4233  -13.8153 H   0  0  0  0  0  0  0  0  0  0  0  0
   29.3857   13.0247  -13.8153 H   0  0  0  0  0  0  0  0  0  0  0  0
 11  5  1  0
 11 12  2  0
 11 15  1  0
 12 13  1  0
 13 16  1  0
 13 14  1  0
 14 15  2  0
 16 17  2  0
 16 18  1  0
 17 19  1  0
 18 22  2  0
 18 21  1  0
 19 20  2  0
 20 21  1  0
  5  1  1  0
  1  2  2  0
  1  7  1  0
  2  3  1  0
  3  4  1  0
  4  8  2  0
  4  6  1  0
  6 10  1  0
  6  7  2  0
  8  9  1  0
  9 23  1  0
  9 10  2  0
  2 24  1  0
  3 25  1  0
  7 26  1  0
 10 27  1  0
 14 28  1  0
 15 29  1  0
 17 30  1  0
 19 31  1  0
 20 32  1  0
 21 33  1  0
 23 34  1  1
 23 35  1  0
 23 36  1  0
M  END
>  <Pose ID>  (371)
457

>  <Score>  (371)
-5.793790817260742

>  <smiles>  (371)
Cc1cc2cc(Oc3ccn(-c4ccc[nH]c4=O)n3)c[nH]c-2n1

$$$$

     RDKit          3D

 37 40  0  0  0  0  0  0  0  0999 V2000
   27.2810    8.2750  -10.1980 C   0  0  0  0  0  0  0  0  0  0  0  0
   28.0540    7.3140  -10.8390 C   0  0  0  0  0  0  0  0  0  0  0  0
   29.0710    7.7040  -11.7020 N   0  0  0  0  0  0  0  0  0  0  0  0
   29.3160    9.0530  -11.9260 C   0  0  0  0  0  0  0  0  0  0  0  0
   26.2620    7.7050   -9.3220 O   0  0  0  0  0  0  0  0  0  0  0  0
   28.5400   10.0160  -11.2850 C   0  0  0  0  0  0  0  0  0  0  0  0
   27.5250    9.6250  -10.4220 C   0  0  0  0  0  0  0  0  0  0  0  0
   30.2290    9.6700  -12.7040 N   0  0  0  0  0  0  0  0  0  0  0  0
   30.0600   11.0320  -12.5890 C   0  0  0  0  0  0  0  0  0  0  0  0
   28.9770   11.0800  -11.6830 C   0  0  0  0  0  0  0  0  0  0  0  0
   25.5600    8.4340   -8.3530 C   0  0  0  0  0  0  0  0  0  0  0  0
   25.0560    9.6670   -8.7380 N   0  0  0  0  0  0  0  0  0  0  0  0
   24.4650   10.1950   -7.6900 N   0  0  0  0  0  0  0  0  0  0  0  0
   24.4930    9.4090   -6.5440 C   0  0  0  0  0  0  0  0  0  0  0  0
   25.1890    8.2900   -7.0290 C   0  0  0  0  0  0  0  0  0  0  0  0
   23.8310   11.4320   -7.6680 C   0  0  0  0  0  0  0  0  0  0  0  0
   23.2260   11.8840   -6.5030 C   0  0  0  0  0  0  0  0  0  0  0  0
   23.2550   11.0970   -5.3570 C   0  0  0  0  0  0  0  0  0  0  0  0
   23.8880    9.8610   -5.3770 N   0  0  0  0  0  0  0  0  0  0  0  0
   30.8210   12.1560  -13.2450 C   0  0  1  0  0  0  0  0  0  0  0  0
   28.3860   12.3920  -11.2300 C   0  0  1  0  0  0  0  0  0  0  0  0
   25.4960    7.0680   -6.1990 C   0  0  1  0  0  0  0  0  0  0  0  0
   27.8609    6.2454  -10.6633 H   0  0  0  0  0  0  0  0  0  0  0  0
   29.6441    6.9917  -12.1764 H   0  0  0  0  0  0  0  0  0  0  0  0
   26.9128   10.3850   -9.9146 H   0  0  0  0  0  0  0  0  0  0  0  0
   23.8086   12.0537   -8.5752 H   0  0  0  0  0  0  0  0  0  0  0  0
   22.7246   12.8629   -6.4866 H   0  0  0  0  0  0  0  0  0  0  0  0
   22.7759   11.4539   -4.4333 H   0  0  0  0  0  0  0  0  0  0  0  0
   31.2591   12.8030  -12.4708 H   0  0  0  0  0  0  0  0  0  0  0  0
   31.6233   11.7390  -13.8714 H   0  0  0  0  0  0  0  0  0  0  0  0
   30.1359   12.7461  -13.8714 H   0  0  0  0  0  0  0  0  0  0  0  0
   28.3703   12.4269  -10.1307 H   0  0  0  0  0  0  0  0  0  0  0  0
   28.9973   13.2217  -11.6145 H   0  0  0  0  0  0  0  0  0  0  0  0
   27.3595   12.4840  -11.6145 H   0  0  0  0  0  0  0  0  0  0  0  0
   25.4316    7.3244   -5.1312 H   0  0  0  0  0  0  0  0  0  0  0  0
   24.7690    6.2755   -6.4303 H   0  0  0  0  0  0  0  0  0  0  0  0
   26.5112    6.7132   -6.4303 H   0  0  0  0  0  0  0  0  0  0  0  0
  1  2  2  0
  1  7  1  0
  1  5  1  0
  2  3  1  0
  3  4  1  0
  4  8  2  0
  4  6  1  0
  6 10  1  0
  6  7  2  0
  8  9  1  0
  9 20  1  0
  9 10  2  0
 10 21  1  0
  5 11  1  0
 11 12  2  0
 11 15  1  0
 12 13  1  0
 13 16  1  0
 13 14  1  0
 14 15  2  0
 14 19  1  0
 15 22  1  0
 16 17  2  0
 17 18  1  0
 18 19  2  0
  2 23  1  0
  3 24  1  0
  7 25  1  0
 16 26  1  0
 17 27  1  0
 18 28  1  0
 20 29  1  1
 20 30  1  0
 20 31  1  0
 21 32  1  1
 21 33  1  0
 21 34  1  0
 22 35  1  1
 22 36  1  0
 22 37  1  0
M  END
>  <Pose ID>  (372)
373

>  <Score>  (372)
-5.791123867034912

>  <smiles>  (372)
Cc1nc2[nH]cc(Oc3nn4cccnc4c3C)cc-2c1C

$$$$

     RDKit          3D

 36 39  0  0  0  0  0  0  0  0999 V2000
   27.7130    7.7600  -10.2120 C   0  0  0  0  0  0  0  0  0  0  0  0
   28.5610    7.0720  -11.0710 C   0  0  0  0  0  0  0  0  0  0  0  0
   29.3510    7.7690  -11.9750 N   0  0  0  0  0  0  0  0  0  0  0  0
   29.2920    9.1570  -12.0250 C   0  0  0  0  0  0  0  0  0  0  0  0
   26.9600    6.8850   -9.3190 O   0  0  0  0  0  0  0  0  0  0  0  0
   28.4420    9.8470  -11.1670 C   0  0  0  0  0  0  0  0  0  0  0  0
   27.6540    9.1480  -10.2600 C   0  0  0  0  0  0  0  0  0  0  0  0
   29.9460   10.0420  -12.8020 N   0  0  0  0  0  0  0  0  0  0  0  0
   29.5340   11.3140  -12.4680 C   0  0  0  0  0  0  0  0  0  0  0  0
   28.6010   11.0210  -11.4500 C   0  0  0  0  0  0  0  0  0  0  0  0
   26.2740    7.3250   -8.1820 C   0  0  0  0  0  0  0  0  0  0  0  0
   25.4880    8.4590   -8.3190 N   0  0  0  0  0  0  0  0  0  0  0  0
   24.9280    8.7390   -7.0860 N   0  0  0  0  0  0  0  0  0  0  0  0
   25.3350    7.8100   -6.2140 C   0  0  0  0  0  0  0  0  0  0  0  0
   26.1290    6.9460   -6.8590 C   0  0  0  0  0  0  0  0  0  0  0  0
   24.1370    9.8050   -6.8190 C   0  0  0  0  0  0  0  0  0  0  0  0
   24.5770   11.0600   -7.2210 C   0  0  0  0  0  0  0  0  0  0  0  0
   23.0210    9.6900   -6.0000 C   0  0  0  0  0  0  0  0  0  0  0  0
   23.9000   12.2000   -6.8040 C   0  0  0  0  0  0  0  0  0  0  0  0
   22.3430   10.8300   -5.5840 C   0  0  0  0  0  0  0  0  0  0  0  0
   22.7940   12.0580   -5.9120 N   0  0  0  0  0  0  0  0  0  0  0  0
   24.2500   13.3260   -7.2030 O   0  0  0  0  0  0  0  0  0  0  0  0
   22.5440    8.3270   -5.5620 C   0  0  1  0  0  0  0  0  0  0  0  0
   28.6065    5.9735  -11.0347 H   0  0  0  0  0  0  0  0  0  0  0  0
   29.9812    7.2574  -12.6091 H   0  0  0  0  0  0  0  0  0  0  0  0
   26.9833    9.6935   -9.5798 H   0  0  0  0  0  0  0  0  0  0  0  0
   29.8451   12.2856  -12.8795 H   0  0  0  0  0  0  0  0  0  0  0  0
   28.0427   11.8170  -10.9355 H   0  0  0  0  0  0  0  0  0  0  0  0
   25.0638    7.7637   -5.1490 H   0  0  0  0  0  0  0  0  0  0  0  0
   26.5985    6.0620   -6.4028 H   0  0  0  0  0  0  0  0  0  0  0  0
   25.4610   11.1514   -7.8692 H   0  0  0  0  0  0  0  0  0  0  0  0
   21.4287   10.7294   -4.9807 H   0  0  0  0  0  0  0  0  0  0  0  0
   22.3400   12.8946   -5.5185 H   0  0  0  0  0  0  0  0  0  0  0  0
   22.5275    8.2799   -4.4631 H   0  0  0  0  0  0  0  0  0  0  0  0
   21.5306    8.1504   -5.9518 H   0  0  0  0  0  0  0  0  0  0  0  0
   23.2261    7.5571   -5.9518 H   0  0  0  0  0  0  0  0  0  0  0  0
 11  5  1  0
 11 12  2  0
 11 15  1  0
 12 13  1  0
 13 16  1  0
 13 14  1  0
 14 15  2  0
 16 17  2  0
 16 18  1  0
 17 19  1  0
 18 20  2  0
 18 23  1  0
 19 22  2  0
 19 21  1  0
 20 21  1  0
  5  1  1  0
  1  2  2  0
  1  7  1  0
  2  3  1  0
  3  4  1  0
  4  8  2  0
  4  6  1  0
  6 10  1  0
  6  7  2  0
  8  9  1  0
  9 10  2  0
  2 24  1  0
  3 25  1  0
  7 26  1  0
  9 27  1  0
 10 28  1  0
 14 29  1  0
 15 30  1  0
 17 31  1  0
 20 32  1  0
 21 33  1  0
 23 34  1  1
 23 35  1  0
 23 36  1  0
M  END
>  <Pose ID>  (373)
452

>  <Score>  (373)
-5.787404537200928

>  <smiles>  (373)
Cc1c[nH]c(=O)cc1-n1ccc(Oc2c[nH]c3nccc-3c2)n1

$$$$

     RDKit          3D

 15 15  0  0  0  0  0  0  0  0999 V2000
   28.8010    9.7260  -12.0590 C   0  0  0  0  0  0  0  0  0  0  0  0
   29.3870    8.4630  -12.0210 C   0  0  0  0  0  0  0  0  0  0  0  0
   28.9040    7.5100  -11.1260 N   0  0  0  0  0  0  0  0  0  0  0  0
   27.7470   10.0350  -11.2070 C   0  0  0  0  0  0  0  0  0  0  0  0
   27.2720    9.0810  -10.3160 C   0  0  0  0  0  0  0  0  0  0  0  0
   27.8490    7.8180  -10.2750 C   0  0  0  0  0  0  0  0  0  0  0  0
   27.4210    6.9640   -9.4770 O   0  0  0  0  0  0  0  0  0  0  0  0
   27.1190   11.4060  -11.2510 C   0  0  1  0  0  0  0  0  0  0  0  0
   29.1737   10.4819  -12.7659 H   0  0  0  0  0  0  0  0  0  0  0  0
   30.2241    8.2197  -12.6918 H   0  0  0  0  0  0  0  0  0  0  0  0
   29.3308    6.5731  -11.0950 H   0  0  0  0  0  0  0  0  0  0  0  0
   26.4379    9.3260   -9.6420 H   0  0  0  0  0  0  0  0  0  0  0  0
   26.9538   11.7667  -10.2250 H   0  0  0  0  0  0  0  0  0  0  0  0
   27.7892   12.0995  -11.7800 H   0  0  0  0  0  0  0  0  0  0  0  0
   26.1561   11.3514  -11.7800 H   0  0  0  0  0  0  0  0  0  0  0  0
  1  2  2  0
  1  4  1  0
  2  3  1  0
  3  6  1  0
  4  8  1  0
  4  5  2  0
  5  6  1  0
  6  7  2  0
  1  9  1  0
  2 10  1  0
  3 11  1  0
  5 12  1  0
  8 13  1  1
  8 14  1  0
  8 15  1  0
M  END
>  <Pose ID>  (374)
5

>  <Score>  (374)
-5.782455921173096

>  <smiles>  (374)
Cc1cc[nH]c(=O)c1

$$$$

     RDKit          3D

 17 18  0  0  0  0  0  0  0  0999 V2000
   28.1010    9.7790  -11.3540 C   0  0  0  0  0  0  0  0  0  0  0  0
   28.8530    8.6110  -11.4020 C   0  0  0  0  0  0  0  0  0  0  0  0
   28.4560    7.4570  -10.7350 N   0  0  0  0  0  0  0  0  0  0  0  0
   26.8820    9.7460  -10.6650 C   0  0  0  0  0  0  0  0  0  0  0  0
   26.4690    8.5980  -10.0000 C   0  0  0  0  0  0  0  0  0  0  0  0
   27.2550    7.4520  -10.0350 C   0  0  0  0  0  0  0  0  0  0  0  0
   26.8840    6.4260   -9.4400 O   0  0  0  0  0  0  0  0  0  0  0  0
   30.0580    8.5880  -12.0960 N   0  0  0  0  0  0  0  0  0  0  0  0
   30.5090    9.7320  -12.7430 C   0  0  0  0  0  0  0  0  0  0  0  0
   29.7570   10.9000  -12.6960 C   0  0  0  0  0  0  0  0  0  0  0  0
   28.5490   10.9180  -11.9900 C   0  0  0  0  0  0  0  0  0  0  0  0
   29.0466    6.6135  -10.7595 H   0  0  0  0  0  0  0  0  0  0  0  0
   26.2429   10.6411  -10.6501 H   0  0  0  0  0  0  0  0  0  0  0  0
   25.5191    8.5960   -9.4453 H   0  0  0  0  0  0  0  0  0  0  0  0
   31.4616    9.7133  -13.2927 H   0  0  0  0  0  0  0  0  0  0  0  0
   30.1097   11.8056  -13.2112 H   0  0  0  0  0  0  0  0  0  0  0  0
   27.9552   11.8427  -11.9421 H   0  0  0  0  0  0  0  0  0  0  0  0
  1 11  1  0
  1  2  2  0
  1  4  1  0
  2  8  1  0
  2  3  1  0
  3  6  1  0
  4  5  2  0
  5  6  1  0
  6  7  2  0
  8  9  2  0
  9 10  1  0
 10 11  2  0
  3 12  1  0
  4 13  1  0
  5 14  1  0
  9 15  1  0
 10 16  1  0
 11 17  1  0
M  END
>  <Pose ID>  (375)
6

>  <Score>  (375)
-5.7818284034729

>  <smiles>  (375)
O=c1ccc2cccnc2[nH]1

$$$$

     RDKit          3D

 38 41  0  0  0  0  0  0  0  0999 V2000
   27.5640    7.7150  -10.1390 C   0  0  0  0  0  0  0  0  0  0  0  0
   28.3050    7.0310  -11.0930 C   0  0  0  0  0  0  0  0  0  0  0  0
   29.0950    7.7350  -11.9960 N   0  0  0  0  0  0  0  0  0  0  0  0
   29.1440    9.1220  -11.9430 C   0  0  0  0  0  0  0  0  0  0  0  0
   26.7960    6.8320   -9.2650 O   0  0  0  0  0  0  0  0  0  0  0  0
   28.3990    9.8090  -10.9860 C   0  0  0  0  0  0  0  0  0  0  0  0
   27.6110    9.1030  -10.0850 C   0  0  0  0  0  0  0  0  0  0  0  0
   29.8200   10.0110  -12.6940 N   0  0  0  0  0  0  0  0  0  0  0  0
   29.5300   11.2800  -12.2470 C   0  0  0  0  0  0  0  0  0  0  0  0
   28.6350   10.9820  -11.1960 C   0  0  0  0  0  0  0  0  0  0  0  0
   26.2120    7.2350   -8.0590 C   0  0  0  0  0  0  0  0  0  0  0  0
   25.5110    8.4320   -8.0690 N   0  0  0  0  0  0  0  0  0  0  0  0
   25.0440    8.6590   -6.7870 N   0  0  0  0  0  0  0  0  0  0  0  0
   25.4250    7.6380   -6.0070 C   0  0  0  0  0  0  0  0  0  0  0  0
   26.1100    6.7720   -6.7610 C   0  0  0  0  0  0  0  0  0  0  0  0
   24.3240    9.7050   -6.4190 C   0  0  0  0  0  0  0  0  0  0  0  0
   24.8080   11.0000   -6.5620 C   0  0  0  0  0  0  0  0  0  0  0  0
   23.0450    9.4930   -5.9220 C   0  0  0  0  0  0  0  0  0  0  0  0
   22.2470   10.5760   -5.5700 C   0  0  0  0  0  0  0  0  0  0  0  0
   22.7300   11.8710   -5.7140 C   0  0  0  0  0  0  0  0  0  0  0  0
   24.0100   12.0830   -6.2090 N   0  0  0  0  0  0  0  0  0  0  0  0
   22.5200    8.0870   -5.7640 C   0  0  1  0  0  0  0  0  0  0  0  0
   28.0010   12.0730  -10.3680 C   0  0  1  0  0  0  0  0  0  0  0  0
   28.2675    5.9324  -11.1349 H   0  0  0  0  0  0  0  0  0  0  0  0
   29.6440    7.2273  -12.7044 H   0  0  0  0  0  0  0  0  0  0  0  0
   27.0237    9.6434   -9.3281 H   0  0  0  0  0  0  0  0  0  0  0  0
   29.8935   12.2536  -12.6074 H   0  0  0  0  0  0  0  0  0  0  0  0
   25.2113    7.5310   -4.9333 H   0  0  0  0  0  0  0  0  0  0  0  0
   26.5332    5.8235   -6.3987 H   0  0  0  0  0  0  0  0  0  0  0  0
   25.8218   11.1683   -6.9542 H   0  0  0  0  0  0  0  0  0  0  0  0
   21.2333   10.4076   -5.1775 H   0  0  0  0  0  0  0  0  0  0  0  0
   22.0987   12.7278   -5.4360 H   0  0  0  0  0  0  0  0  0  0  0  0
   22.4304    7.8471   -4.6942 H   0  0  0  0  0  0  0  0  0  0  0  0
   21.5320    8.0087   -6.2413 H   0  0  0  0  0  0  0  0  0  0  0  0
   23.2149    7.3803   -6.2413 H   0  0  0  0  0  0  0  0  0  0  0  0
   28.1328   11.8461   -9.2998 H   0  0  0  0  0  0  0  0  0  0  0  0
   28.4806   13.0353  -10.6004 H   0  0  0  0  0  0  0  0  0  0  0  0
   26.9275   12.1328  -10.6004 H   0  0  0  0  0  0  0  0  0  0  0  0
  5  1  1  0
  5 11  1  0
  1  2  2  0
  1  7  1  0
  2  3  1  0
  3  4  1  0
  4  8  2  0
  4  6  1  0
  6 10  1  0
  6  7  2  0
  8  9  1  0
  9 10  2  0
 10 23  1  0
 11 12  2  0
 11 15  1  0
 12 13  1  0
 13 16  1  0
 13 14  1  0
 14 15  2  0
 16 17  2  0
 16 18  1  0
 17 21  1  0
 18 22  1  0
 18 19  2  0
 19 20  1  0
 20 21  2  0
  2 24  1  0
  3 25  1  0
  7 26  1  0
  9 27  1  0
 14 28  1  0
 15 29  1  0
 17 30  1  0
 19 31  1  0
 20 32  1  0
 22 33  1  1
 22 34  1  0
 22 35  1  0
 23 36  1  1
 23 37  1  0
 23 38  1  0
M  END
>  <Pose ID>  (376)
254

>  <Score>  (376)
-5.780711650848389

>  <smiles>  (376)
Cc1cnc2[nH]cc(Oc3ccn(-c4cnccc4C)n3)cc1-2

$$$$

     RDKit          3D

 37 40  0  0  0  0  0  0  0  0999 V2000
   27.9250    7.9140  -10.3410 C   0  0  0  0  0  0  0  0  0  0  0  0
   28.8640    7.1580  -11.0340 C   0  0  0  0  0  0  0  0  0  0  0  0
   29.7440    7.7780  -11.9100 N   0  0  0  0  0  0  0  0  0  0  0  0
   29.6870    9.1550  -12.0970 C   0  0  0  0  0  0  0  0  0  0  0  0
   27.0810    7.1150   -9.4560 O   0  0  0  0  0  0  0  0  0  0  0  0
   28.7450    9.9120  -11.4070 C   0  0  0  0  0  0  0  0  0  0  0  0
   27.8670    9.2900  -10.5290 C   0  0  0  0  0  0  0  0  0  0  0  0
   30.4190    9.9720  -12.8800 N   0  0  0  0  0  0  0  0  0  0  0  0
   29.9690   11.2630  -12.7170 C   0  0  0  0  0  0  0  0  0  0  0  0
   28.9300   11.0550  -11.7830 C   0  0  0  0  0  0  0  0  0  0  0  0
   26.2720    7.6530   -8.4480 C   0  0  0  0  0  0  0  0  0  0  0  0
   25.5040    8.7570   -8.7760 N   0  0  0  0  0  0  0  0  0  0  0  0
   24.8390    9.1230   -7.6730 N   0  0  0  0  0  0  0  0  0  0  0  0
   25.1180    8.2780   -6.6050 C   0  0  0  0  0  0  0  0  0  0  0  0
   25.9860    7.3980   -7.1190 C   0  0  0  0  0  0  0  0  0  0  0  0
   23.9470   10.1750   -7.5090 C   0  0  0  0  0  0  0  0  0  0  0  0
   23.3350   10.3840   -6.2800 N   0  0  0  0  0  0  0  0  0  0  0  0
   23.6140    9.5390   -5.2120 C   0  0  0  0  0  0  0  0  0  0  0  0
   24.5060    8.4860   -5.3750 C   0  0  0  0  0  0  0  0  0  0  0  0
   22.9480    9.7650   -3.8760 C   0  0  1  0  0  0  0  0  0  0  0  0
   30.4490   12.5410  -13.3580 C   0  0  1  0  0  0  0  0  0  0  0  0
   23.6420   11.0920   -8.6680 C   0  0  1  0  0  0  0  0  0  0  0  0
   28.9093    6.0687  -10.8879 H   0  0  0  0  0  0  0  0  0  0  0  0
   30.4401    7.2177  -12.4222 H   0  0  0  0  0  0  0  0  0  0  0  0
   27.1238    9.8878   -9.9810 H   0  0  0  0  0  0  0  0  0  0  0  0
   28.3155   11.8885  -11.4120 H   0  0  0  0  0  0  0  0  0  0  0  0
   26.4229    6.5653   -6.5483 H   0  0  0  0  0  0  0  0  0  0  0  0
   24.7276    7.8171   -4.5303 H   0  0  0  0  0  0  0  0  0  0  0  0
   23.6553    9.5250   -3.0684 H   0  0  0  0  0  0  0  0  0  0  0  0
   22.6404   10.8178   -3.7931 H   0  0  0  0  0  0  0  0  0  0  0  0
   22.0631    9.1168   -3.7931 H   0  0  0  0  0  0  0  0  0  0  0  0
   30.7207   13.2643  -12.5751 H   0  0  0  0  0  0  0  0  0  0  0  0
   31.3290   12.3296  -13.9832 H   0  0  0  0  0  0  0  0  0  0  0  0
   29.6474   12.9612  -13.9832 H   0  0  0  0  0  0  0  0  0  0  0  0
   23.3165   12.0706   -8.2855 H   0  0  0  0  0  0  0  0  0  0  0  0
   24.5458   11.2204   -9.2817 H   0  0  0  0  0  0  0  0  0  0  0  0
   22.8413   10.6534   -9.2817 H   0  0  0  0  0  0  0  0  0  0  0  0
  5  1  1  0
  5 11  1  0
  1  2  2  0
  1  7  1  0
  2  3  1  0
  3  4  1  0
  4  8  2  0
  4  6  1  0
  6 10  1  0
  6  7  2  0
  8  9  1  0
  9 21  1  0
  9 10  2  0
 11 12  2  0
 11 15  1  0
 12 13  1  0
 13 16  1  0
 13 14  1  0
 14 15  2  0
 14 19  1  0
 16 22  1  0
 16 17  2  0
 17 18  1  0
 18 19  2  0
 18 20  1  0
  2 23  1  0
  3 24  1  0
  7 25  1  0
 10 26  1  0
 15 27  1  0
 19 28  1  0
 20 29  1  1
 20 30  1  0
 20 31  1  0
 21 32  1  1
 21 33  1  0
 21 34  1  0
 22 35  1  1
 22 36  1  0
 22 37  1  0
M  END
>  <Pose ID>  (377)
307

>  <Score>  (377)
-5.776546955108643

>  <smiles>  (377)
Cc1cc2cc(Oc3cc4cc(C)nc(C)n4n3)c[nH]c-2n1

$$$$

     RDKit          3D

 37 40  0  0  0  0  0  0  0  0999 V2000
   27.9490    7.8950  -10.3940 C   0  0  0  0  0  0  0  0  0  0  0  0
   28.8840    7.1450  -11.0960 C   0  0  0  0  0  0  0  0  0  0  0  0
   29.7780    7.7760  -11.9530 N   0  0  0  0  0  0  0  0  0  0  0  0
   29.7380    9.1570  -12.1060 C   0  0  0  0  0  0  0  0  0  0  0  0
   27.0900    7.0850   -9.5320 O   0  0  0  0  0  0  0  0  0  0  0  0
   28.8010    9.9080  -11.4030 C   0  0  0  0  0  0  0  0  0  0  0  0
   27.9080    9.2750  -10.5460 C   0  0  0  0  0  0  0  0  0  0  0  0
   30.4850    9.9840  -12.8630 N   0  0  0  0  0  0  0  0  0  0  0  0
   30.0500   11.2750  -12.6730 C   0  0  0  0  0  0  0  0  0  0  0  0
   29.0030   11.0570  -11.7500 C   0  0  0  0  0  0  0  0  0  0  0  0
   26.2800    7.6080   -8.5170 C   0  0  0  0  0  0  0  0  0  0  0  0
   25.5280    8.7290   -8.8230 N   0  0  0  0  0  0  0  0  0  0  0  0
   24.8600    9.0760   -7.7150 N   0  0  0  0  0  0  0  0  0  0  0  0
   25.1220    8.2020   -6.6670 C   0  0  0  0  0  0  0  0  0  0  0  0
   25.9810    7.3250   -7.1970 C   0  0  0  0  0  0  0  0  0  0  0  0
   23.9800   10.1360   -7.5330 C   0  0  0  0  0  0  0  0  0  0  0  0
   23.3620   10.3210   -6.3020 N   0  0  0  0  0  0  0  0  0  0  0  0
   23.6230    9.4470   -5.2530 C   0  0  0  0  0  0  0  0  0  0  0  0
   24.5040    8.3880   -5.4360 C   0  0  0  0  0  0  0  0  0  0  0  0
   30.5500   12.5620  -13.2790 C   0  0  1  0  0  0  0  0  0  0  0  0
   29.3770   13.4020  -13.8260 C   0  0  1  0  0  0  0  0  0  0  0  0
   23.6950   11.0840   -8.6710 C   0  0  1  0  0  0  0  0  0  0  0  0
   28.9169    6.0523  -10.9737 H   0  0  0  0  0  0  0  0  0  0  0  0
   30.4704    7.2201  -12.4749 H   0  0  0  0  0  0  0  0  0  0  0  0
   27.1683    9.8676   -9.9878 H   0  0  0  0  0  0  0  0  0  0  0  0
   28.3970   11.8890  -11.3620 H   0  0  0  0  0  0  0  0  0  0  0  0
   26.4030    6.4728   -6.6441 H   0  0  0  0  0  0  0  0  0  0  0  0
   23.1328    9.5935   -4.2792 H   0  0  0  0  0  0  0  0  0  0  0  0
   24.7124    7.6966   -4.6062 H   0  0  0  0  0  0  0  0  0  0  0  0
   31.0800   13.1413  -12.5087 H   0  0  0  0  0  0  0  0  0  0  0  0
   31.2283   12.3201  -14.1105 H   0  0  0  0  0  0  0  0  0  0  0  0
   28.7993   13.8157  -12.9863 H   0  0  0  0  0  0  0  0  0  0  0  0
   29.7706   14.2248  -14.4409 H   0  0  0  0  0  0  0  0  0  0  0  0
   28.7248   12.7644  -14.4409 H   0  0  0  0  0  0  0  0  0  0  0  0
   23.4004   12.0638   -8.2670 H   0  0  0  0  0  0  0  0  0  0  0  0
   24.5985   11.1984   -9.2880 H   0  0  0  0  0  0  0  0  0  0  0  0
   22.8782   10.6812   -9.2880 H   0  0  0  0  0  0  0  0  0  0  0  0
  1  2  2  0
  1  7  1  0
  1  5  1  0
  2  3  1  0
  3  4  1  0
  4  8  2  0
  4  6  1  0
  6 10  1  0
  6  7  2  0
  8  9  1  0
  9 20  1  0
  9 10  2  0
 20 21  1  0
  5 11  1  0
 11 12  2  0
 11 15  1  0
 12 13  1  0
 13 16  1  0
 13 14  1  0
 14 15  2  0
 14 19  1  0
 16 22  1  0
 16 17  2  0
 17 18  1  0
 18 19  2  0
  2 23  1  0
  3 24  1  0
  7 25  1  0
 10 26  1  0
 15 27  1  0
 18 28  1  0
 19 29  1  0
 20 30  1  1
 20 31  1  0
 21 32  1  1
 21 33  1  0
 21 34  1  0
 22 35  1  1
 22 36  1  0
 22 37  1  0
M  END
>  <Pose ID>  (378)
287

>  <Score>  (378)
-5.775821685791016

>  <smiles>  (378)
CCc1cc2cc(Oc3cc4ccnc(C)n4n3)c[nH]c-2n1

$$$$

     RDKit          3D

 36 39  0  0  0  0  0  0  0  0999 V2000
   27.7270    7.8160  -10.2930 C   0  0  0  0  0  0  0  0  0  0  0  0
   28.5140    7.0570  -11.1490 C   0  0  0  0  0  0  0  0  0  0  0  0
   29.3730    7.6830  -12.0420 N   0  0  0  0  0  0  0  0  0  0  0  0
   29.4470    9.0700  -12.0800 C   0  0  0  0  0  0  0  0  0  0  0  0
   26.8860    7.0090   -9.4130 O   0  0  0  0  0  0  0  0  0  0  0  0
   28.6550    9.8310  -11.2240 C   0  0  0  0  0  0  0  0  0  0  0  0
   27.7990    9.2030  -10.3300 C   0  0  0  0  0  0  0  0  0  0  0  0
   30.1880    9.8970  -12.8460 N   0  0  0  0  0  0  0  0  0  0  0  0
   29.8930   11.1990  -12.5070 C   0  0  0  0  0  0  0  0  0  0  0  0
   28.9270   10.9880  -11.4990 C   0  0  0  0  0  0  0  0  0  0  0  0
   26.2330    7.5050   -8.2780 C   0  0  0  0  0  0  0  0  0  0  0  0
   25.5580    8.7070   -8.4150 N   0  0  0  0  0  0  0  0  0  0  0  0
   25.0150    9.0320   -7.1850 N   0  0  0  0  0  0  0  0  0  0  0  0
   25.3250    8.0600   -6.3150 C   0  0  0  0  0  0  0  0  0  0  0  0
   26.0400    7.1340   -6.9590 C   0  0  0  0  0  0  0  0  0  0  0  0
   24.3150   10.1600   -6.9390 C   0  0  0  0  0  0  0  0  0  0  0  0
   24.8650   11.3880   -7.2880 C   0  0  0  0  0  0  0  0  0  0  0  0
   23.1960   10.1080   -6.1180 C   0  0  0  0  0  0  0  0  0  0  0  0
   22.6260   11.2840   -5.6440 N   0  0  0  0  0  0  0  0  0  0  0  0
   24.2950   12.5630   -6.8130 C   0  0  0  0  0  0  0  0  0  0  0  0
   23.1680   12.5110   -5.9930 C   0  0  0  0  0  0  0  0  0  0  0  0
   22.7030    9.0090   -5.8080 O   0  0  0  0  0  0  0  0  0  0  0  0
   22.5410   13.7860   -5.4870 C   0  0  1  0  0  0  0  0  0  0  0  0
   28.4567    5.9589  -11.1195 H   0  0  0  0  0  0  0  0  0  0  0  0
   29.9559    7.1189  -12.6768 H   0  0  0  0  0  0  0  0  0  0  0  0
   27.1771    9.8039   -9.6502 H   0  0  0  0  0  0  0  0  0  0  0  0
   30.2969   12.1399  -12.9090 H   0  0  0  0  0  0  0  0  0  0  0  0
   28.4410   11.8299  -10.9843 H   0  0  0  0  0  0  0  0  0  0  0  0
   25.0394    8.0304   -5.2531 H   0  0  0  0  0  0  0  0  0  0  0  0
   26.4215    6.2075   -6.5051 H   0  0  0  0  0  0  0  0  0  0  0  0
   25.7504   11.4296   -7.9394 H   0  0  0  0  0  0  0  0  0  0  0  0
   21.7987   11.2434   -5.0318 H   0  0  0  0  0  0  0  0  0  0  0  0
   24.7330   13.5349   -7.0840 H   0  0  0  0  0  0  0  0  0  0  0  0
   22.5421   13.7837   -4.3870 H   0  0  0  0  0  0  0  0  0  0  0  0
   23.1178   14.6484   -5.8525 H   0  0  0  0  0  0  0  0  0  0  0  0
   21.5058   13.8557   -5.8525 H   0  0  0  0  0  0  0  0  0  0  0  0
 11  5  1  0
 11 12  2  0
 11 15  1  0
 12 13  1  0
 13 16  1  0
 13 14  1  0
 14 15  2  0
 16 17  2  0
 16 18  1  0
 17 20  1  0
 18 22  2  0
 18 19  1  0
 19 21  1  0
 20 21  2  0
 21 23  1  0
  5  1  1  0
  1  2  2  0
  1  7  1  0
  2  3  1  0
  3  4  1  0
  4  8  2  0
  4  6  1  0
  6 10  1  0
  6  7  2  0
  8  9  1  0
  9 10  2  0
  2 24  1  0
  3 25  1  0
  7 26  1  0
  9 27  1  0
 10 28  1  0
 14 29  1  0
 15 30  1  0
 17 31  1  0
 19 32  1  0
 20 33  1  0
 23 34  1  1
 23 35  1  0
 23 36  1  0
M  END
>  <Pose ID>  (379)
451

>  <Score>  (379)
-5.774399280548096

>  <smiles>  (379)
Cc1ccc(-n2ccc(Oc3c[nH]c4nccc-4c3)n2)c(=O)[nH]1

$$$$

     RDKit          3D

 34 37  0  0  0  0  0  0  0  0999 V2000
   27.8890    7.8380  -10.2800 C   0  0  0  0  0  0  0  0  0  0  0  0
   28.8520    7.1220  -10.9800 C   0  0  0  0  0  0  0  0  0  0  0  0
   29.6980    7.7790  -11.8650 N   0  0  0  0  0  0  0  0  0  0  0  0
   29.5820    9.1510  -12.0520 C   0  0  0  0  0  0  0  0  0  0  0  0
   27.0870    7.0060   -9.3880 O   0  0  0  0  0  0  0  0  0  0  0  0
   28.6160    9.8680  -11.3510 C   0  0  0  0  0  0  0  0  0  0  0  0
   27.7720    9.2100  -10.4660 C   0  0  0  0  0  0  0  0  0  0  0  0
   30.2740    9.9990  -12.8400 N   0  0  0  0  0  0  0  0  0  0  0  0
   29.7700   11.2690  -12.6730 C   0  0  0  0  0  0  0  0  0  0  0  0
   28.7500   11.0180  -11.7280 C   0  0  0  0  0  0  0  0  0  0  0  0
   26.2650    7.5080   -8.3710 C   0  0  0  0  0  0  0  0  0  0  0  0
   25.4480    8.5800   -8.6950 N   0  0  0  0  0  0  0  0  0  0  0  0
   24.7880    8.9150   -7.6090 N   0  0  0  0  0  0  0  0  0  0  0  0
   25.0640    8.1350   -6.4930 C   0  0  0  0  0  0  0  0  0  0  0  0
   26.0000    7.2420   -7.0400 C   0  0  0  0  0  0  0  0  0  0  0  0
   23.8620    9.9480   -7.5230 C   0  0  0  0  0  0  0  0  0  0  0  0
   23.2120   10.2020   -6.3220 C   0  0  0  0  0  0  0  0  0  0  0  0
   23.4900    9.4220   -5.2050 C   0  0  0  0  0  0  0  0  0  0  0  0
   24.4150    8.3890   -5.2900 N   0  0  0  0  0  0  0  0  0  0  0  0
   30.1910   12.5660  -13.3170 C   0  0  1  0  0  0  0  0  0  0  0  0
   27.8650   12.1240  -11.2100 C   0  0  1  0  0  0  0  0  0  0  0  0
   28.9447    6.0357  -10.8337 H   0  0  0  0  0  0  0  0  0  0  0  0
   30.4124    7.2481  -12.3834 H   0  0  0  0  0  0  0  0  0  0  0  0
   27.0093    9.7761   -9.9111 H   0  0  0  0  0  0  0  0  0  0  0  0
   26.4691    6.4238   -6.4739 H   0  0  0  0  0  0  0  0  0  0  0  0
   23.6437   10.5651   -8.4071 H   0  0  0  0  0  0  0  0  0  0  0  0
   22.4785   11.0189   -6.2547 H   0  0  0  0  0  0  0  0  0  0  0  0
   22.9769    9.6231   -4.2530 H   0  0  0  0  0  0  0  0  0  0  0  0
   30.4301   13.3026  -12.5358 H   0  0  0  0  0  0  0  0  0  0  0  0
   31.0793   12.3934  -13.9425 H   0  0  0  0  0  0  0  0  0  0  0  0
   29.3707   12.9480  -13.9425 H   0  0  0  0  0  0  0  0  0  0  0  0
   27.8724   12.1148  -10.1101 H   0  0  0  0  0  0  0  0  0  0  0  0
   28.2398   13.0931  -11.5711 H   0  0  0  0  0  0  0  0  0  0  0  0
   26.8373   11.9708  -11.5711 H   0  0  0  0  0  0  0  0  0  0  0  0
  1  2  2  0
  1  7  1  0
  1  5  1  0
  2  3  1  0
  3  4  1  0
  4  8  2  0
  4  6  1  0
  6 10  1  0
  6  7  2  0
  8  9  1  0
  9 20  1  0
  9 10  2  0
 10 21  1  0
  5 11  1  0
 11 12  2  0
 11 15  1  0
 12 13  1  0
 13 16  1  0
 13 14  1  0
 14 15  2  0
 14 19  1  0
 16 17  2  0
 17 18  1  0
 18 19  2  0
  2 22  1  0
  3 23  1  0
  7 24  1  0
 15 25  1  0
 16 26  1  0
 17 27  1  0
 18 28  1  0
 20 29  1  1
 20 30  1  0
 20 31  1  0
 21 32  1  1
 21 33  1  0
 21 34  1  0
M  END
>  <Pose ID>  (380)
360

>  <Score>  (380)
-5.770129680633545

>  <smiles>  (380)
Cc1nc2[nH]cc(Oc3cc4ncccn4n3)cc-2c1C

$$$$

     RDKit          3D

 37 40  0  0  0  0  0  0  0  0999 V2000
   27.9170    7.8980  -10.2620 C   0  0  0  0  0  0  0  0  0  0  0  0
   28.9020    7.1610  -10.9070 C   0  0  0  0  0  0  0  0  0  0  0  0
   29.7590    7.7840  -11.8070 N   0  0  0  0  0  0  0  0  0  0  0  0
   29.6310    9.1450  -12.0610 C   0  0  0  0  0  0  0  0  0  0  0  0
   27.1060    7.1010   -9.3460 O   0  0  0  0  0  0  0  0  0  0  0  0
   28.6430    9.8830  -11.4150 C   0  0  0  0  0  0  0  0  0  0  0  0
   27.7890    9.2590  -10.5150 C   0  0  0  0  0  0  0  0  0  0  0  0
   30.3290    9.9600  -12.8760 N   0  0  0  0  0  0  0  0  0  0  0  0
   29.8080   11.2320  -12.7810 C   0  0  0  0  0  0  0  0  0  0  0  0
   28.7730   11.0150  -11.8460 C   0  0  0  0  0  0  0  0  0  0  0  0
   26.2590    7.6430   -8.3720 C   0  0  0  0  0  0  0  0  0  0  0  0
   25.4370    8.6870   -8.7630 N   0  0  0  0  0  0  0  0  0  0  0  0
   24.7520    9.0660   -7.7070 N   0  0  0  0  0  0  0  0  0  0  0  0
   25.0140    8.3460   -6.5500 C   0  0  0  0  0  0  0  0  0  0  0  0
   25.9710    7.4380   -7.0340 C   0  0  0  0  0  0  0  0  0  0  0  0
   23.8130   10.0910   -7.6900 C   0  0  0  0  0  0  0  0  0  0  0  0
   23.1360   10.3960   -6.5150 C   0  0  0  0  0  0  0  0  0  0  0  0
   23.4000    9.6750   -5.3570 C   0  0  0  0  0  0  0  0  0  0  0  0
   24.3370    8.6490   -5.3740 N   0  0  0  0  0  0  0  0  0  0  0  0
   22.6670   10.0050   -4.0800 C   0  0  1  0  0  0  0  0  0  0  0  0
   22.8210    8.9650   -2.9910 C   0  0  1  0  0  0  0  0  0  0  0  0
   23.6420    9.4700   -1.8540 C   0  0  1  0  0  0  0  0  0  0  0  0
   29.0039    6.0844  -10.7056 H   0  0  0  0  0  0  0  0  0  0  0  0
   30.4889    7.2373  -12.2858 H   0  0  0  0  0  0  0  0  0  0  0  0
   27.0104    9.8423  -10.0017 H   0  0  0  0  0  0  0  0  0  0  0  0
   30.1132   12.1576  -13.2910 H   0  0  0  0  0  0  0  0  0  0  0  0
   28.1126   11.8324  -11.5207 H   0  0  0  0  0  0  0  0  0  0  0  0
   26.4378    6.6540   -6.4197 H   0  0  0  0  0  0  0  0  0  0  0  0
   23.6056   10.6613   -8.6075 H   0  0  0  0  0  0  0  0  0  0  0  0
   22.3926   11.2067   -6.5019 H   0  0  0  0  0  0  0  0  0  0  0  0
   23.0510   10.9629   -3.6993 H   0  0  0  0  0  0  0  0  0  0  0  0
   21.5967   10.0449   -4.3306 H   0  0  0  0  0  0  0  0  0  0  0  0
   21.8236    8.6920   -2.6160 H   0  0  0  0  0  0  0  0  0  0  0  0
   23.3344    8.0928   -3.4219 H   0  0  0  0  0  0  0  0  0  0  0  0
   23.1701    9.1798   -0.9037 H   0  0  0  0  0  0  0  0  0  0  0  0
   24.6514    9.0364   -1.9096 H   0  0  0  0  0  0  0  0  0  0  0  0
   23.7103   10.5665   -1.9096 H   0  0  0  0  0  0  0  0  0  0  0  0
 11  5  1  0
 11 12  2  0
 11 15  1  0
 12 13  1  0
 13 16  1  0
 13 14  1  0
 14 15  2  0
 14 19  1  0
 16 17  2  0
 17 18  1  0
 18 19  2  0
 18 20  1  0
  5  1  1  0
  1  2  2  0
  1  7  1  0
  2  3  1  0
  3  4  1  0
  4  8  2  0
  4  6  1  0
  6 10  1  0
  6  7  2  0
  8  9  1  0
  9 10  2  0
 20 21  1  0
 21 22  1  0
  2 23  1  0
  3 24  1  0
  7 25  1  0
  9 26  1  0
 10 27  1  0
 15 28  1  0
 16 29  1  0
 17 30  1  0
 20 31  1  1
 20 32  1  0
 21 33  1  1
 21 34  1  0
 22 35  1  1
 22 36  1  0
 22 37  1  0
M  END
>  <Pose ID>  (381)
377

>  <Score>  (381)
-5.768876552581787

>  <smiles>  (381)
CCCc1ccn2nc(Oc3c[nH]c4nccc-4c3)cc2n1

$$$$

     RDKit          3D

 34 36  0  0  0  0  0  0  0  0999 V2000
   27.9970    7.8840   -9.9180 C   0  0  0  0  0  0  0  0  0  0  0  0
   26.9710    6.9590  -10.0440 N   0  0  0  0  0  0  0  0  0  0  0  0
   26.1710    6.6510   -8.9500 C   0  0  0  0  0  0  0  0  0  0  0  0
   28.2280    8.5050   -8.6950 N   0  0  0  0  0  0  0  0  0  0  0  0
   26.4020    7.2710   -7.7260 C   0  0  0  0  0  0  0  0  0  0  0  0
   27.3440    8.1880   -7.5930 C   0  0  0  0  0  0  0  0  0  0  0  0
   28.7140    8.1600  -10.8980 O   0  0  0  0  0  0  0  0  0  0  0  0
   25.6400    6.9260   -6.6380 N   0  0  0  0  0  0  0  0  0  0  0  0
   24.4440    7.5660   -6.2470 C   0  0  0  0  0  0  0  0  0  0  0  0
   23.2290    6.9340   -6.0090 N   0  0  0  0  0  0  0  0  0  0  0  0
   22.1200    7.6770   -5.6200 C   0  0  0  0  0  0  0  0  0  0  0  0
   22.2300    9.0560   -5.4690 C   0  0  0  0  0  0  0  0  0  0  0  0
   23.4440    9.6870   -5.7050 C   0  0  0  0  0  0  0  0  0  0  0  0
   24.5580    8.9360   -6.0660 C   0  0  0  0  0  0  0  0  0  0  0  0
   20.9820    9.5730   -5.0730 C   0  0  0  0  0  0  0  0  0  0  0  0
   19.7820    8.9890   -5.3080 O   0  0  0  0  0  0  0  0  0  0  0  0
   20.8890   10.5480   -4.1250 N   0  0  0  0  0  0  0  0  0  0  0  0
   18.9090    9.6640   -4.4340 C   0  0  0  0  0  0  0  0  0  0  0  0
   19.5930   10.6300   -3.7140 C   0  0  0  0  0  0  0  0  0  0  0  0
   23.5540   11.1860   -5.5690 C   0  0  1  0  0  0  0  0  0  0  0  0
   22.5190   11.9930   -6.3430 C   0  0  1  0  0  0  0  0  0  0  0  0
   25.3567    5.9184   -9.0516 H   0  0  0  0  0  0  0  0  0  0  0  0
   29.0050    9.1707   -8.5768 H   0  0  0  0  0  0  0  0  0  0  0  0
   27.4578    8.7162   -6.6348 H   0  0  0  0  0  0  0  0  0  0  0  0
   25.9666    6.1377   -6.0610 H   0  0  0  0  0  0  0  0  0  0  0  0
   21.1587    7.1763   -5.4322 H   0  0  0  0  0  0  0  0  0  0  0  0
   25.5307    9.4297   -6.2081 H   0  0  0  0  0  0  0  0  0  0  0  0
   17.8337    9.4538   -4.3363 H   0  0  0  0  0  0  0  0  0  0  0  0
   19.1760   11.3200   -2.9657 H   0  0  0  0  0  0  0  0  0  0  0  0
   23.4521   11.4379   -4.5031 H   0  0  0  0  0  0  0  0  0  0  0  0
   24.5301   11.4571   -5.9975 H   0  0  0  0  0  0  0  0  0  0  0  0
   21.8545   12.5111   -5.6359 H   0  0  0  0  0  0  0  0  0  0  0  0
   23.0299   12.7335   -6.9759 H   0  0  0  0  0  0  0  0  0  0  0  0
   21.9254   11.3169   -6.9759 H   0  0  0  0  0  0  0  0  0  0  0  0
  8  5  1  0
  8  9  1  0
  9 14  1  0
  9 10  2  0
 10 11  1  0
 11 12  2  0
 12 13  1  0
 12 15  1  0
 13 14  2  0
 13 20  1  0
  1  7  2  0
  1  2  1  0
  1  4  1  0
  2  3  2  0
  3  5  1  0
  4  6  1  0
  5  6  2  0
 15 16  1  0
 15 17  2  0
 16 18  1  0
 17 19  1  0
 18 19  2  0
 20 21  1  0
  3 22  1  0
  4 23  1  0
  6 24  1  0
  8 25  1  0
 11 26  1  0
 14 27  1  0
 18 28  1  0
 19 29  1  0
 20 30  1  1
 20 31  1  0
 21 32  1  1
 21 33  1  0
 21 34  1  0
M  END
>  <Pose ID>  (382)
114

>  <Score>  (382)
-5.766897678375244

>  <smiles>  (382)
CCc1cc(Nc2cnc(=O)[nH]c2)ncc1-c1ncco1

$$$$

     RDKit          3D

 34 37  0  0  0  0  0  0  0  0999 V2000
   27.9250    7.8380  -10.3230 C   0  0  0  0  0  0  0  0  0  0  0  0
   28.9090    7.1230  -10.9960 C   0  0  0  0  0  0  0  0  0  0  0  0
   29.7670    7.7780  -11.8700 N   0  0  0  0  0  0  0  0  0  0  0  0
   29.6450    9.1480  -12.0720 C   0  0  0  0  0  0  0  0  0  0  0  0
   27.1130    7.0080   -9.4380 O   0  0  0  0  0  0  0  0  0  0  0  0
   28.6590    9.8640  -11.3990 C   0  0  0  0  0  0  0  0  0  0  0  0
   27.8020    9.2070  -10.5240 C   0  0  0  0  0  0  0  0  0  0  0  0
   30.3440    9.9920  -12.8550 N   0  0  0  0  0  0  0  0  0  0  0  0
   29.8290   11.2600  -12.7110 C   0  0  0  0  0  0  0  0  0  0  0  0
   28.7920   11.0110  -11.7850 C   0  0  0  0  0  0  0  0  0  0  0  0
   26.2670    7.5150   -8.4440 C   0  0  0  0  0  0  0  0  0  0  0  0
   25.4490    8.5760   -8.7920 N   0  0  0  0  0  0  0  0  0  0  0  0
   24.7550    8.9190   -7.6990 N   0  0  0  0  0  0  0  0  0  0  0  0
   25.0630    8.1000   -6.6210 C   0  0  0  0  0  0  0  0  0  0  0  0
   25.9780    7.2600   -7.1160 C   0  0  0  0  0  0  0  0  0  0  0  0
   23.8100    9.9290   -7.5570 C   0  0  0  0  0  0  0  0  0  0  0  0
   23.1750   10.1190   -6.3360 N   0  0  0  0  0  0  0  0  0  0  0  0
   23.4830    9.2990   -5.2560 C   0  0  0  0  0  0  0  0  0  0  0  0
   24.4280    8.2900   -5.3990 C   0  0  0  0  0  0  0  0  0  0  0  0
   30.2530   12.5540  -13.3600 C   0  0  1  0  0  0  0  0  0  0  0  0
   22.7920    9.5040   -3.9310 C   0  0  1  0  0  0  0  0  0  0  0  0
   29.0081    6.0391  -10.8364 H   0  0  0  0  0  0  0  0  0  0  0  0
   30.4951    7.2476  -12.3695 H   0  0  0  0  0  0  0  0  0  0  0  0
   27.0245    9.7724   -9.9894 H   0  0  0  0  0  0  0  0  0  0  0  0
   28.1340   11.8172  -11.4285 H   0  0  0  0  0  0  0  0  0  0  0  0
   26.4486    6.4555   -6.5317 H   0  0  0  0  0  0  0  0  0  0  0  0
   23.5652   10.5774   -8.4112 H   0  0  0  0  0  0  0  0  0  0  0  0
   24.6736    7.6416   -4.5450 H   0  0  0  0  0  0  0  0  0  0  0  0
   30.4950   13.2926  -12.5816 H   0  0  0  0  0  0  0  0  0  0  0  0
   31.1401   12.3769  -13.9859 H   0  0  0  0  0  0  0  0  0  0  0  0
   29.4331   12.9362  -13.9859 H   0  0  0  0  0  0  0  0  0  0  0  0
   23.4974    9.2947   -3.1133 H   0  0  0  0  0  0  0  0  0  0  0  0
   22.4428   10.5444   -3.8567 H   0  0  0  0  0  0  0  0  0  0  0  0
   21.9319    8.8223   -3.8567 H   0  0  0  0  0  0  0  0  0  0  0  0
  1  2  2  0
  1  7  1  0
  1  5  1  0
  2  3  1  0
  3  4  1  0
  4  8  2  0
  4  6  1  0
  6 10  1  0
  6  7  2  0
  8  9  1  0
  9 20  1  0
  9 10  2  0
  5 11  1  0
 11 12  2  0
 11 15  1  0
 12 13  1  0
 13 16  1  0
 13 14  1  0
 14 15  2  0
 14 19  1  0
 16 17  2  0
 17 18  1  0
 18 19  2  0
 18 21  1  0
  2 22  1  0
  3 23  1  0
  7 24  1  0
 10 25  1  0
 15 26  1  0
 16 27  1  0
 19 28  1  0
 20 29  1  1
 20 30  1  0
 20 31  1  0
 21 32  1  1
 21 33  1  0
 21 34  1  0
M  END
>  <Pose ID>  (383)
279

>  <Score>  (383)
-5.765727996826172

>  <smiles>  (383)
Cc1cc2cc(Oc3c[nH]c4nc(C)cc-4c3)nn2cn1

$$$$

     RDKit          3D

 34 37  0  0  0  0  0  0  0  0999 V2000
   27.8410    7.8330  -10.2310 C   0  0  0  0  0  0  0  0  0  0  0  0
   28.8060    7.1230  -10.9320 C   0  0  0  0  0  0  0  0  0  0  0  0
   29.6340    7.7800  -11.8340 N   0  0  0  0  0  0  0  0  0  0  0  0
   29.4970    9.1490  -12.0350 C   0  0  0  0  0  0  0  0  0  0  0  0
   27.0600    7.0020   -9.3200 O   0  0  0  0  0  0  0  0  0  0  0  0
   28.5290    9.8600  -11.3320 C   0  0  0  0  0  0  0  0  0  0  0  0
   27.7030    9.2020  -10.4290 C   0  0  0  0  0  0  0  0  0  0  0  0
   30.1680    9.9950  -12.8400 N   0  0  0  0  0  0  0  0  0  0  0  0
   29.6500   11.2610  -12.6830 C   0  0  0  0  0  0  0  0  0  0  0  0
   28.6440   11.0070  -11.7240 C   0  0  0  0  0  0  0  0  0  0  0  0
   26.2420    7.5050   -8.3000 C   0  0  0  0  0  0  0  0  0  0  0  0
   25.4070    8.5610   -8.6270 N   0  0  0  0  0  0  0  0  0  0  0  0
   24.7550    8.9000   -7.5380 N   0  0  0  0  0  0  0  0  0  0  0  0
   25.0540    8.1380   -6.4160 C   0  0  0  0  0  0  0  0  0  0  0  0
   25.9960    7.2510   -6.9620 C   0  0  0  0  0  0  0  0  0  0  0  0
   23.8160    9.9220   -7.4540 C   0  0  0  0  0  0  0  0  0  0  0  0
   23.1750   10.1810   -6.2490 C   0  0  0  0  0  0  0  0  0  0  0  0
   23.4760    9.4190   -5.1260 C   0  0  0  0  0  0  0  0  0  0  0  0
   24.4130    8.3960   -5.2100 N   0  0  0  0  0  0  0  0  0  0  0  0
   22.7830    9.7010   -3.8160 C   0  0  1  0  0  0  0  0  0  0  0  0
   27.7510   12.1090  -11.2090 C   0  0  1  0  0  0  0  0  0  0  0  0
   28.9153    6.0400  -10.7734 H   0  0  0  0  0  0  0  0  0  0  0  0
   30.3497    7.2525  -12.3541 H   0  0  0  0  0  0  0  0  0  0  0  0
   26.9399    9.7643   -9.8709 H   0  0  0  0  0  0  0  0  0  0  0  0
   29.9384   12.2052  -13.1681 H   0  0  0  0  0  0  0  0  0  0  0  0
   26.4827    6.4463   -6.3914 H   0  0  0  0  0  0  0  0  0  0  0  0
   23.5804   10.5261   -8.3426 H   0  0  0  0  0  0  0  0  0  0  0  0
   22.4303   10.9879   -6.1836 H   0  0  0  0  0  0  0  0  0  0  0  0
   23.4487    9.4301   -2.9833 H   0  0  0  0  0  0  0  0  0  0  0  0
   22.5360   10.7712   -3.7548 H   0  0  0  0  0  0  0  0  0  0  0  0
   21.8590    9.1074   -3.7548 H   0  0  0  0  0  0  0  0  0  0  0  0
   27.7569   12.1018  -10.1090 H   0  0  0  0  0  0  0  0  0  0  0  0
   28.1204   13.0797  -11.5713 H   0  0  0  0  0  0  0  0  0  0  0  0
   26.7248   11.9488  -11.5713 H   0  0  0  0  0  0  0  0  0  0  0  0
  1  2  2  0
  1  7  1  0
  1  5  1  0
  2  3  1  0
  3  4  1  0
  4  8  2  0
  4  6  1  0
  6 10  1  0
  6  7  2  0
  8  9  1  0
  9 10  2  0
 10 21  1  0
  5 11  1  0
 11 12  2  0
 11 15  1  0
 12 13  1  0
 13 16  1  0
 13 14  1  0
 14 15  2  0
 14 19  1  0
 16 17  2  0
 17 18  1  0
 18 19  2  0
 18 20  1  0
  2 22  1  0
  3 23  1  0
  7 24  1  0
  9 25  1  0
 15 26  1  0
 16 27  1  0
 17 28  1  0
 20 29  1  1
 20 30  1  0
 20 31  1  0
 21 32  1  1
 21 33  1  0
 21 34  1  0
M  END
>  <Pose ID>  (384)
375

>  <Score>  (384)
-5.758908271789551

>  <smiles>  (384)
Cc1ccn2nc(Oc3c[nH]c4ncc(C)c-4c3)cc2n1

$$$$

     RDKit          3D

 32 35  0  0  0  0  0  0  0  0999 V2000
   26.8530    8.8220  -10.4630 C   0  0  0  0  0  0  0  0  0  0  0  0
   27.5500    7.6220  -10.3590 C   0  0  0  0  0  0  0  0  0  0  0  0
   28.8010    7.4930  -10.9510 N   0  0  0  0  0  0  0  0  0  0  0  0
   25.6250    9.2770  -10.0000 N   0  0  0  0  0  0  0  0  0  0  0  0
   29.3550    8.5590  -11.6490 C   0  0  0  0  0  0  0  0  0  0  0  0
   28.6580    9.7580  -11.7550 C   0  0  0  0  0  0  0  0  0  0  0  0
   27.4070    9.8870  -11.1620 C   0  0  0  0  0  0  0  0  0  0  0  0
   30.5280    8.6750  -12.2970 N   0  0  0  0  0  0  0  0  0  0  0  0
   30.6160    9.9380  -12.8350 C   0  0  0  0  0  0  0  0  0  0  0  0
   29.3800   10.4790  -12.4200 C   0  0  0  0  0  0  0  0  0  0  0  0
   25.2810    9.5140   -8.5790 C   0  0  0  0  0  0  0  0  0  0  0  0
   24.0730    9.9520   -8.0620 N   0  0  0  0  0  0  0  0  0  0  0  0
   23.9290   10.1670   -6.6960 C   0  0  0  0  0  0  0  0  0  0  0  0
   24.9960    9.9080   -5.8430 C   0  0  0  0  0  0  0  0  0  0  0  0
   26.2040    9.4540   -6.3570 C   0  0  0  0  0  0  0  0  0  0  0  0
   26.3460    9.2560   -7.7240 N   0  0  0  0  0  0  0  0  0  0  0  0
   27.1580    9.2260   -5.5920 O   0  0  0  0  0  0  0  0  0  0  0  0
   22.8350   10.6350   -5.9470 C   0  0  0  0  0  0  0  0  0  0  0  0
   23.2270   10.6280   -4.6300 C   0  0  0  0  0  0  0  0  0  0  0  0
   24.4670   10.2460   -4.5840 O   0  0  0  0  0  0  0  0  0  0  0  0
   22.3680   10.9990   -3.4460 C   0  0  1  0  0  0  0  0  0  0  0  0
   27.1114    6.7764   -9.8089 H   0  0  0  0  0  0  0  0  0  0  0  0
   29.3181    6.6057  -10.8721 H   0  0  0  0  0  0  0  0  0  0  0  0
   24.8946    9.4648  -10.7015 H   0  0  0  0  0  0  0  0  0  0  0  0
   26.8547   10.8345  -11.2466 H   0  0  0  0  0  0  0  0  0  0  0  0
   31.4235   10.3977  -13.4238 H   0  0  0  0  0  0  0  0  0  0  0  0
   29.0827   11.5044  -12.6850 H   0  0  0  0  0  0  0  0  0  0  0  0
   27.2413    8.9177   -8.1047 H   0  0  0  0  0  0  0  0  0  0  0  0
   21.8555   10.9463   -6.3391 H   0  0  0  0  0  0  0  0  0  0  0  0
   22.9063   10.7665   -2.5153 H   0  0  0  0  0  0  0  0  0  0  0  0
   22.1419   12.0750   -3.4798 H   0  0  0  0  0  0  0  0  0  0  0  0
   21.4297   10.4259   -3.4798 H   0  0  0  0  0  0  0  0  0  0  0  0
  4  1  1  0
  4 11  1  0
 11 12  2  0
 11 16  1  0
 12 13  1  0
 13 18  1  0
 13 14  2  0
 14 15  1  0
 14 20  1  0
 15 16  1  0
 15 17  2  0
 18 19  2  0
 19 20  1  0
 19 21  1  0
  1  7  1  0
  1  2  2  0
  2  3  1  0
  3  5  1  0
  5  8  2  0
  5  6  1  0
  6 10  1  0
  6  7  2  0
  8  9  1  0
  9 10  2  0
  2 22  1  0
  3 23  1  0
  4 24  1  0
  7 25  1  0
  9 26  1  0
 10 27  1  0
 16 28  1  0
 18 29  1  0
 21 30  1  1
 21 31  1  0
 21 32  1  0
M  END
>  <Pose ID>  (385)
17

>  <Score>  (385)
-5.736818790435791

>  <smiles>  (385)
Cc1cc2nc(Nc3c[nH]c4nccc-4c3)[nH]c(=O)c2o1

$$$$

     RDKit          3D

 38 41  0  0  0  0  0  0  0  0999 V2000
   26.8140    8.8470  -10.3760 C   0  0  0  0  0  0  0  0  0  0  0  0
   27.5300    7.6650  -10.2180 C   0  0  0  0  0  0  0  0  0  0  0  0
   28.7800    7.5270  -10.8130 N   0  0  0  0  0  0  0  0  0  0  0  0
   25.5810    9.3050   -9.9260 N   0  0  0  0  0  0  0  0  0  0  0  0
   29.3110    8.5660  -11.5670 C   0  0  0  0  0  0  0  0  0  0  0  0
   28.5930    9.7470  -11.7270 C   0  0  0  0  0  0  0  0  0  0  0  0
   27.3450    9.8850  -11.1310 C   0  0  0  0  0  0  0  0  0  0  0  0
   30.4770    8.6690  -12.2290 N   0  0  0  0  0  0  0  0  0  0  0  0
   30.5400    9.9050  -12.8300 C   0  0  0  0  0  0  0  0  0  0  0  0
   29.2990   10.4460  -12.4330 C   0  0  0  0  0  0  0  0  0  0  0  0
   25.2430    9.6070   -8.5160 C   0  0  0  0  0  0  0  0  0  0  0  0
   24.0320   10.0500   -8.0120 N   0  0  0  0  0  0  0  0  0  0  0  0
   23.8940   10.3300   -6.6570 C   0  0  0  0  0  0  0  0  0  0  0  0
   24.9720   10.1310   -5.8010 C   0  0  0  0  0  0  0  0  0  0  0  0
   26.1830    9.6720   -6.3010 C   0  0  0  0  0  0  0  0  0  0  0  0
   26.3190    9.4080   -7.6580 N   0  0  0  0  0  0  0  0  0  0  0  0
   27.1460    9.4980   -5.5330 O   0  0  0  0  0  0  0  0  0  0  0  0
   22.7990   10.8180   -5.9230 C   0  0  0  0  0  0  0  0  0  0  0  0
   23.1990   10.8820   -4.6110 C   0  0  0  0  0  0  0  0  0  0  0  0
   24.4460   10.5230   -4.5560 O   0  0  0  0  0  0  0  0  0  0  0  0
   22.3430   11.2970   -3.4400 C   0  0  1  0  0  0  0  0  0  0  0  0
   22.1500   10.0970   -2.5330 C   0  0  1  0  0  0  0  0  0  0  0  0
   22.8330   10.2990   -1.2000 C   0  0  1  0  0  0  0  0  0  0  0  0
   27.1087    6.8408   -9.6237 H   0  0  0  0  0  0  0  0  0  0  0  0
   29.3125    6.6533  -10.6943 H   0  0  0  0  0  0  0  0  0  0  0  0
   24.8427    9.4457  -10.6302 H   0  0  0  0  0  0  0  0  0  0  0  0
   26.7766   10.8182  -11.2575 H   0  0  0  0  0  0  0  0  0  0  0  0
   31.3355   10.3476  -13.4474 H   0  0  0  0  0  0  0  0  0  0  0  0
   28.9832   11.4521  -12.7461 H   0  0  0  0  0  0  0  0  0  0  0  0
   27.2167    9.0649   -8.0286 H   0  0  0  0  0  0  0  0  0  0  0  0
   21.8123   11.0951   -6.3225 H   0  0  0  0  0  0  0  0  0  0  0  0
   22.8414   12.1051   -2.8845 H   0  0  0  0  0  0  0  0  0  0  0  0
   21.3676   11.6592   -3.7970 H   0  0  0  0  0  0  0  0  0  0  0  0
   21.0737    9.9450   -2.3645 H   0  0  0  0  0  0  0  0  0  0  0  0
   22.5961    9.2181   -3.0214 H   0  0  0  0  0  0  0  0  0  0  0  0
   22.1216   10.0886   -0.3879 H   0  0  0  0  0  0  0  0  0  0  0  0
   23.6920    9.6165   -1.1210 H   0  0  0  0  0  0  0  0  0  0  0  0
   23.1826   11.3390   -1.1210 H   0  0  0  0  0  0  0  0  0  0  0  0
  4  1  1  0
  4 11  1  0
 11 12  2  0
 11 16  1  0
 12 13  1  0
 13 18  1  0
 13 14  2  0
 14 15  1  0
 14 20  1  0
 15 16  1  0
 15 17  2  0
 18 19  2  0
 19 20  1  0
 19 21  1  0
  1  7  1  0
  1  2  2  0
  2  3  1  0
  3  5  1  0
  5  8  2  0
  5  6  1  0
  6 10  1  0
  6  7  2  0
  8  9  1  0
  9 10  2  0
 21 22  1  0
 22 23  1  0
  2 24  1  0
  3 25  1  0
  4 26  1  0
  7 27  1  0
  9 28  1  0
 10 29  1  0
 16 30  1  0
 18 31  1  0
 21 32  1  1
 21 33  1  0
 22 34  1  1
 22 35  1  0
 23 36  1  1
 23 37  1  0
 23 38  1  0
M  END
>  <Pose ID>  (386)
24

>  <Score>  (386)
-5.727350234985352

>  <smiles>  (386)
CCCc1cc2nc(Nc3c[nH]c4nccc-4c3)[nH]c(=O)c2o1

$$$$

     RDKit          3D

 19 21  0  0  0  0  0  0  0  0999 V2000
   27.9950    7.2640  -10.3420 C   0  0  0  0  0  0  0  0  0  0  0  0
   27.0070    6.8760   -9.4430 N   0  0  0  0  0  0  0  0  0  0  0  0
   26.1160    7.8170   -8.9450 C   0  0  0  0  0  0  0  0  0  0  0  0
   26.2100    9.1460   -9.3440 C   0  0  0  0  0  0  0  0  0  0  0  0
   27.1970    9.5320  -10.2430 N   0  0  0  0  0  0  0  0  0  0  0  0
   28.0890    8.5920  -10.7410 C   0  0  0  0  0  0  0  0  0  0  0  0
   25.4070   10.2120   -8.9540 C   0  0  0  0  0  0  0  0  0  0  0  0
   24.3270   10.0370   -8.0960 C   0  0  0  0  0  0  0  0  0  0  0  0
   25.6870   11.4720   -9.4680 C   0  0  0  0  0  0  0  0  0  0  0  0
   23.5290   11.1200   -7.7520 N   0  0  0  0  0  0  0  0  0  0  0  0
   23.8090   12.3810   -8.2680 C   0  0  0  0  0  0  0  0  0  0  0  0
   26.8860   11.1030  -10.3700 N   0  0  0  0  0  0  0  0  0  0  0  0
   24.8880   12.5570   -9.1260 C   0  0  0  0  0  0  0  0  0  0  0  0
   28.7020    6.5197  -10.7372 H   0  0  0  0  0  0  0  0  0  0  0  0
   25.3346    7.5110   -8.2338 H   0  0  0  0  0  0  0  0  0  0  0  0
   28.8706    8.8984  -11.4518 H   0  0  0  0  0  0  0  0  0  0  0  0
   24.1045    9.0395   -7.6893 H   0  0  0  0  0  0  0  0  0  0  0  0
   23.1763   13.2390   -7.9969 H   0  0  0  0  0  0  0  0  0  0  0  0
   25.1097   13.5541   -9.5342 H   0  0  0  0  0  0  0  0  0  0  0  0
  1  6  2  0
  1  2  1  0
  2  3  2  0
  3  4  1  0
  4  5  1  0
  4  7  2  0
  5  6  1  0
  5 12  1  0
  7  9  1  0
  7  8  1  0
  8 10  2  0
  9 12  2  0
  9 13  1  0
 10 11  1  0
 11 13  2  0
  1 14  1  0
  3 15  1  0
  6 16  1  0
  8 17  1  0
 11 18  1  0
 13 19  1  0
M  END
>  <Pose ID>  (387)
49

>  <Score>  (387)
-5.722672462463379

>  <smiles>  (387)
c1cc2nn3ccncc3c2cn1

$$$$

     RDKit          3D

 19 19  0  0  0  0  0  0  0  0999 V2000
   29.0420    9.6300  -12.1280 C   0  0  0  0  0  0  0  0  0  0  0  0
   29.6220    8.3740  -11.9920 C   0  0  0  0  0  0  0  0  0  0  0  0
   29.0550    7.4340  -11.1370 N   0  0  0  0  0  0  0  0  0  0  0  0
   27.8980    9.9460  -11.4080 C   0  0  0  0  0  0  0  0  0  0  0  0
   27.3490   11.2220  -11.5800 O   0  0  0  0  0  0  0  0  0  0  0  0
   27.9100    7.7520  -10.4170 C   0  0  0  0  0  0  0  0  0  0  0  0
   27.3310    9.0090  -10.5530 C   0  0  0  0  0  0  0  0  0  0  0  0
   27.4030    6.9120   -9.6520 O   0  0  0  0  0  0  0  0  0  0  0  0
   26.9280   11.7510  -12.8860 C   0  0  1  0  0  0  0  0  0  0  0  0
   26.3380   10.4360  -13.5420 C   0  0  1  0  0  0  0  0  0  0  0  0
   29.4890   10.3726  -12.8053 H   0  0  0  0  0  0  0  0  0  0  0  0
   30.5296    8.1231  -12.5606 H   0  0  0  0  0  0  0  0  0  0  0  0
   29.4839    6.5028  -11.0379 H   0  0  0  0  0  0  0  0  0  0  0  0
   26.4242    9.2615   -9.9838 H   0  0  0  0  0  0  0  0  0  0  0  0
   26.1619   12.5334  -12.7812 H   0  0  0  0  0  0  0  0  0  0  0  0
   27.7254   12.2388  -13.4657 H   0  0  0  0  0  0  0  0  0  0  0  0
   26.0255    9.7395  -12.7500 H   0  0  0  0  0  0  0  0  0  0  0  0
   25.4699   10.6952  -14.1659 H   0  0  0  0  0  0  0  0  0  0  0  0
   27.1088    9.9598  -14.1659 H   0  0  0  0  0  0  0  0  0  0  0  0
  1  2  2  0
  1  4  1  0
  2  3  1  0
  3  6  1  0
  4  5  1  0
  4  7  2  0
  6  7  1  0
  6  8  2  0
  5  9  1  0
  9 10  1  0
  1 11  1  0
  2 12  1  0
  3 13  1  0
  7 14  1  0
  9 15  1  1
  9 16  1  0
 10 17  1  1
 10 18  1  0
 10 19  1  0
M  END
>  <Pose ID>  (388)
11

>  <Score>  (388)
-5.718751430511475

>  <smiles>  (388)
CCOc1cc[nH]c(=O)c1

$$$$

     RDKit          3D

 37 40  0  0  0  0  0  0  0  0999 V2000
   27.8370    7.8350  -10.2360 C   0  0  0  0  0  0  0  0  0  0  0  0
   28.7990    7.1230  -10.9400 C   0  0  0  0  0  0  0  0  0  0  0  0
   29.6250    7.7790  -11.8440 N   0  0  0  0  0  0  0  0  0  0  0  0
   29.4900    9.1480  -12.0440 C   0  0  0  0  0  0  0  0  0  0  0  0
   27.0560    7.0050   -9.3230 O   0  0  0  0  0  0  0  0  0  0  0  0
   28.5260    9.8610  -11.3370 C   0  0  0  0  0  0  0  0  0  0  0  0
   27.7010    9.2040  -10.4330 C   0  0  0  0  0  0  0  0  0  0  0  0
   30.1610    9.9940  -12.8500 N   0  0  0  0  0  0  0  0  0  0  0  0
   29.6460   11.2610  -12.6910 C   0  0  0  0  0  0  0  0  0  0  0  0
   28.6420   11.0090  -11.7300 C   0  0  0  0  0  0  0  0  0  0  0  0
   26.2430    7.5090   -8.3010 C   0  0  0  0  0  0  0  0  0  0  0  0
   25.4100    8.5670   -8.6240 N   0  0  0  0  0  0  0  0  0  0  0  0
   24.7610    8.9070   -7.5330 N   0  0  0  0  0  0  0  0  0  0  0  0
   25.0610    8.1440   -6.4130 C   0  0  0  0  0  0  0  0  0  0  0  0
   26.0000    7.2540   -6.9620 C   0  0  0  0  0  0  0  0  0  0  0  0
   23.8240    9.9300   -7.4450 C   0  0  0  0  0  0  0  0  0  0  0  0
   23.1880   10.1910   -6.2380 C   0  0  0  0  0  0  0  0  0  0  0  0
   23.4900    9.4260   -5.1170 C   0  0  0  0  0  0  0  0  0  0  0  0
   24.4250    8.4020   -5.2040 N   0  0  0  0  0  0  0  0  0  0  0  0
   22.8010    9.7090   -3.8040 C   0  0  2  0  0  0  0  0  0  0  0  0
   22.9910    8.6290   -2.7610 C   0  0  1  0  0  0  0  0  0  0  0  0
   21.5660   10.5870   -3.9210 C   0  0  1  0  0  0  0  0  0  0  0  0
   28.9070    6.0398  -10.7819 H   0  0  0  0  0  0  0  0  0  0  0  0
   30.3381    7.2505  -12.3666 H   0  0  0  0  0  0  0  0  0  0  0  0
   26.9400    9.7673   -9.8730 H   0  0  0  0  0  0  0  0  0  0  0  0
   29.9353   12.2048  -13.1763 H   0  0  0  0  0  0  0  0  0  0  0  0
   27.9933   11.8133  -11.3528 H   0  0  0  0  0  0  0  0  0  0  0  0
   26.4860    6.4475   -6.3933 H   0  0  0  0  0  0  0  0  0  0  0  0
   23.5857   10.5340   -8.3329 H   0  0  0  0  0  0  0  0  0  0  0  0
   22.4471   11.0011   -6.1692 H   0  0  0  0  0  0  0  0  0  0  0  0
   23.3369   10.4604   -3.2055 H   0  0  0  0  0  0  0  0  0  0  0  0
   22.9132    9.0713   -1.7568 H   0  0  0  0  0  0  0  0  0  0  0  0
   22.2144    7.8598   -2.8840 H   0  0  0  0  0  0  0  0  0  0  0  0
   23.9835    8.1710   -2.8840 H   0  0  0  0  0  0  0  0  0  0  0  0
   21.2030   10.8451   -2.9152 H   0  0  0  0  0  0  0  0  0  0  0  0
   21.8210   11.5077   -4.4662 H   0  0  0  0  0  0  0  0  0  0  0  0
   20.7802   10.0437   -4.4662 H   0  0  0  0  0  0  0  0  0  0  0  0
 11  5  1  0
 11 12  2  0
 11 15  1  0
 12 13  1  0
 13 16  1  0
 13 14  1  0
 14 15  2  0
 14 19  1  0
 16 17  2  0
 17 18  1  0
 18 19  2  0
 18 20  1  0
 20 22  1  0
 20 21  1  0
  5  1  1  0
  1  2  2  0
  1  7  1  0
  2  3  1  0
  3  4  1  0
  4  8  2  0
  4  6  1  0
  6 10  1  0
  6  7  2  0
  8  9  1  0
  9 10  2  0
  2 23  1  0
  3 24  1  0
  7 25  1  0
  9 26  1  0
 10 27  1  0
 15 28  1  0
 16 29  1  0
 17 30  1  0
 20 31  1  1
 21 32  1  1
 21 33  1  0
 21 34  1  0
 22 35  1  1
 22 36  1  0
 22 37  1  0
M  END
>  <Pose ID>  (389)
379

>  <Score>  (389)
-5.716634750366211

>  <smiles>  (389)
CC(C)c1ccn2nc(Oc3c[nH]c4nccc-4c3)cc2n1

$$$$

     RDKit          3D

 36 39  0  0  0  0  0  0  0  0999 V2000
   27.5990    8.0310  -10.2640 C   0  0  0  0  0  0  0  0  0  0  0  0
   28.4200    7.1670  -10.9790 C   0  0  0  0  0  0  0  0  0  0  0  0
   29.3690    7.6770  -11.8560 N   0  0  0  0  0  0  0  0  0  0  0  0
   29.5000    9.0510  -12.0180 C   0  0  0  0  0  0  0  0  0  0  0  0
   26.6630    7.3410   -9.3820 O   0  0  0  0  0  0  0  0  0  0  0  0
   28.6790    9.9150  -11.3010 C   0  0  0  0  0  0  0  0  0  0  0  0
   27.7300    9.4050  -10.4260 C   0  0  0  0  0  0  0  0  0  0  0  0
   30.3320    9.7750  -12.7940 N   0  0  0  0  0  0  0  0  0  0  0  0
   30.0640   11.1120  -12.6020 C   0  0  0  0  0  0  0  0  0  0  0  0
   29.0160   11.0310  -11.6590 C   0  0  0  0  0  0  0  0  0  0  0  0
   25.9440    7.9630   -8.3560 C   0  0  0  0  0  0  0  0  0  0  0  0
   25.3320    9.1690   -8.6560 N   0  0  0  0  0  0  0  0  0  0  0  0
   24.7100    9.6270   -7.5100 N   0  0  0  0  0  0  0  0  0  0  0  0
   24.9120    8.7330   -6.5300 C   0  0  0  0  0  0  0  0  0  0  0  0
   25.6360    7.7250   -7.0260 C   0  0  0  0  0  0  0  0  0  0  0  0
   24.0060   10.7920   -7.4280 C   0  0  0  0  0  0  0  0  0  0  0  0
   24.0860   11.7580   -8.4240 C   0  0  0  0  0  0  0  0  0  0  0  0
   23.3790   11.0860   -6.2230 C   0  0  0  0  0  0  0  0  0  0  0  0
   22.9000   12.3510   -5.9770 C   0  0  0  0  0  0  0  0  0  0  0  0
   22.9120   13.3140   -7.0100 N   0  0  0  0  0  0  0  0  0  0  0  0
   23.5400   13.0190   -8.2150 C   0  0  0  0  0  0  0  0  0  0  0  0
   23.6130   13.8830   -9.1080 O   0  0  0  0  0  0  0  0  0  0  0  0
   26.0580    6.5010   -6.2500 C   0  0  1  0  0  0  0  0  0  0  0  0
   28.3183    6.0793  -10.8504 H   0  0  0  0  0  0  0  0  0  0  0  0
   29.9761    7.0362  -12.3867 H   0  0  0  0  0  0  0  0  0  0  0  0
   27.0807   10.0892   -9.8600 H   0  0  0  0  0  0  0  0  0  0  0  0
   30.5348   11.9962  -13.0563 H   0  0  0  0  0  0  0  0  0  0  0  0
   28.5259   11.9336  -11.2652 H   0  0  0  0  0  0  0  0  0  0  0  0
   24.5449    8.8155   -5.4963 H   0  0  0  0  0  0  0  0  0  0  0  0
   24.5815   11.5246   -9.3779 H   0  0  0  0  0  0  0  0  0  0  0  0
   23.2652   10.3011   -5.4608 H   0  0  0  0  0  0  0  0  0  0  0  0
   22.5099   12.6114   -4.9820 H   0  0  0  0  0  0  0  0  0  0  0  0
   22.4587   14.2285   -6.8717 H   0  0  0  0  0  0  0  0  0  0  0  0
   25.9867    6.7077   -5.1720 H   0  0  0  0  0  0  0  0  0  0  0  0
   25.3983    5.6589   -6.5063 H   0  0  0  0  0  0  0  0  0  0  0  0
   27.0965    6.2444   -6.5063 H   0  0  0  0  0  0  0  0  0  0  0  0
 11  5  1  0
 11 12  2  0
 11 15  1  0
 12 13  1  0
 13 16  1  0
 13 14  1  0
 14 15  2  0
 15 23  1  0
 16 17  2  0
 16 18  1  0
 17 21  1  0
 18 19  2  0
 19 20  1  0
 20 21  1  0
 21 22  2  0
  5  1  1  0
  1  2  2  0
  1  7  1  0
  2  3  1  0
  3  4  1  0
  4  8  2  0
  4  6  1  0
  6 10  1  0
  6  7  2  0
  8  9  1  0
  9 10  2  0
  2 24  1  0
  3 25  1  0
  7 26  1  0
  9 27  1  0
 10 28  1  0
 14 29  1  0
 17 30  1  0
 18 31  1  0
 19 32  1  0
 20 33  1  0
 23 34  1  1
 23 35  1  0
 23 36  1  0
M  END
>  <Pose ID>  (390)
414

>  <Score>  (390)
-5.716088771820068

>  <smiles>  (390)
Cc1cn(-c2cc[nH]c(=O)c2)nc1Oc1c[nH]c2nccc-2c1

$$$$

     RDKit          3D

 32 34  0  0  0  0  0  0  0  0999 V2000
   27.8530    7.8690  -10.2400 C   0  0  0  0  0  0  0  0  0  0  0  0
   28.7970    7.1370  -10.9500 C   0  0  0  0  0  0  0  0  0  0  0  0
   29.6400    7.7780  -11.8490 N   0  0  0  0  0  0  0  0  0  0  0  0
   29.5380    9.1520  -12.0400 C   0  0  0  0  0  0  0  0  0  0  0  0
   27.0520    7.0510   -9.3310 O   0  0  0  0  0  0  0  0  0  0  0  0
   28.5920    9.8830  -11.3300 C   0  0  0  0  0  0  0  0  0  0  0  0
   27.7510    9.2410  -10.4300 C   0  0  0  0  0  0  0  0  0  0  0  0
   30.2290    9.9850  -12.8410 N   0  0  0  0  0  0  0  0  0  0  0  0
   29.7460   11.2640  -12.6720 C   0  0  0  0  0  0  0  0  0  0  0  0
   28.7360   11.0300  -11.7140 C   0  0  0  0  0  0  0  0  0  0  0  0
   26.2530    7.5700   -8.3080 C   0  0  0  0  0  0  0  0  0  0  0  0
   25.4450    8.6500   -8.6230 N   0  0  0  0  0  0  0  0  0  0  0  0
   24.7660    9.0240   -7.4770 N   0  0  0  0  0  0  0  0  0  0  0  0
   25.1260    8.1980   -6.4840 C   0  0  0  0  0  0  0  0  0  0  0  0
   26.0020    7.3130   -6.9700 C   0  0  0  0  0  0  0  0  0  0  0  0
   23.8430   10.1300   -7.4930 C   0  0  1  0  0  0  0  0  0  0  0  0
   30.1750   12.5530  -13.3280 C   0  0  1  0  0  0  0  0  0  0  0  0
   27.8740   12.1510  -11.1880 C   0  0  1  0  0  0  0  0  0  0  0  0
   28.8767    6.0502  -10.8002 H   0  0  0  0  0  0  0  0  0  0  0  0
   30.3407    7.2357  -12.3742 H   0  0  0  0  0  0  0  0  0  0  0  0
   27.0037    9.8197   -9.8673 H   0  0  0  0  0  0  0  0  0  0  0  0
   24.7626    8.2413   -5.4467 H   0  0  0  0  0  0  0  0  0  0  0  0
   26.4584    6.4971   -6.3903 H   0  0  0  0  0  0  0  0  0  0  0  0
   23.6007   10.4203   -6.4600 H   0  0  0  0  0  0  0  0  0  0  0  0
   24.3013   10.9825   -8.0156 H   0  0  0  0  0  0  0  0  0  0  0  0
   22.9222    9.8316   -8.0156 H   0  0  0  0  0  0  0  0  0  0  0  0
   30.4217   13.2942  -12.5535 H   0  0  0  0  0  0  0  0  0  0  0  0
   31.0603   12.3687  -13.9544 H   0  0  0  0  0  0  0  0  0  0  0  0
   29.3559   12.9360  -13.9544 H   0  0  0  0  0  0  0  0  0  0  0  0
   27.8849   12.1368  -10.0881 H   0  0  0  0  0  0  0  0  0  0  0  0
   28.2663   13.1142  -11.5462 H   0  0  0  0  0  0  0  0  0  0  0  0
   26.8423   12.0193  -11.5462 H   0  0  0  0  0  0  0  0  0  0  0  0
  1  2  2  0
  1  7  1  0
  1  5  1  0
  2  3  1  0
  3  4  1  0
  4  8  2  0
  4  6  1  0
  6 10  1  0
  6  7  2  0
  8  9  1  0
  9 17  1  0
  9 10  2  0
 10 18  1  0
  5 11  1  0
 11 12  2  0
 11 15  1  0
 12 13  1  0
 13 16  1  0
 13 14  1  0
 14 15  2  0
  2 19  1  0
  3 20  1  0
  7 21  1  0
 14 22  1  0
 15 23  1  0
 16 24  1  1
 16 25  1  0
 16 26  1  0
 17 27  1  1
 17 28  1  0
 17 29  1  0
 18 30  1  1
 18 31  1  0
 18 32  1  0
M  END
>  <Pose ID>  (391)
477

>  <Score>  (391)
-5.715859889984131

>  <smiles>  (391)
Cc1nc2[nH]cc(Oc3ccn(C)n3)cc-2c1C

$$$$

     RDKit          3D

 38 41  0  0  0  0  0  0  0  0999 V2000
   28.0860    7.9070  -10.5550 C   0  0  0  0  0  0  0  0  0  0  0  0
   28.9250    7.1350  -11.3480 C   0  0  0  0  0  0  0  0  0  0  0  0
   29.8290    7.7500  -12.2090 N   0  0  0  0  0  0  0  0  0  0  0  0
   29.8940    9.1350  -12.2720 C   0  0  0  0  0  0  0  0  0  0  0  0
   27.2030    7.1120   -9.7050 O   0  0  0  0  0  0  0  0  0  0  0  0
   29.0530    9.9090  -11.4770 C   0  0  0  0  0  0  0  0  0  0  0  0
   28.1500    9.2920  -10.6200 C   0  0  0  0  0  0  0  0  0  0  0  0
   30.6720    9.9480  -13.0120 N   0  0  0  0  0  0  0  0  0  0  0  0
   30.3490   11.2570  -12.7190 C   0  0  0  0  0  0  0  0  0  0  0  0
   29.3320   11.0590  -11.7620 C   0  0  0  0  0  0  0  0  0  0  0  0
   26.4840    7.6260   -8.6210 C   0  0  0  0  0  0  0  0  0  0  0  0
   25.8120    8.8210   -8.8200 N   0  0  0  0  0  0  0  0  0  0  0  0
   25.1990    9.1690   -7.6300 N   0  0  0  0  0  0  0  0  0  0  0  0
   25.4660    8.2180   -6.7230 C   0  0  0  0  0  0  0  0  0  0  0  0
   26.2210    7.2820   -7.3060 C   0  0  0  0  0  0  0  0  0  0  0  0
   24.4560   10.2160   -7.4460 C   0  0  0  0  0  0  0  0  0  0  0  0
   23.8620   10.4980   -6.2220 C   0  0  0  0  0  0  0  0  0  0  0  0
   24.3360   11.1130   -8.5010 N   0  0  0  0  0  0  0  0  0  0  0  0
   23.6210   12.2940   -8.3310 C   0  0  0  0  0  0  0  0  0  0  0  0
   23.0270   12.5750   -7.1060 C   0  0  0  0  0  0  0  0  0  0  0  0
   23.1920   11.7100   -6.0490 C   0  0  0  0  0  0  0  0  0  0  0  0
   22.6430   12.0750   -4.6930 C   0  0  1  0  0  0  0  0  0  0  0  0
   28.6180   12.2230  -11.1190 C   0  0  1  0  0  0  0  0  0  0  0  0
   28.8750    6.0374  -11.2955 H   0  0  0  0  0  0  0  0  0  0  0  0
   30.4495    7.1777  -12.7992 H   0  0  0  0  0  0  0  0  0  0  0  0
   27.4845    9.9023   -9.9918 H   0  0  0  0  0  0  0  0  0  0  0  0
   30.7672   12.1923  -13.1193 H   0  0  0  0  0  0  0  0  0  0  0  0
   25.1224    8.2098   -5.6781 H   0  0  0  0  0  0  0  0  0  0  0  0
   26.5821    6.3682   -6.8114 H   0  0  0  0  0  0  0  0  0  0  0  0
   23.9193    9.7727   -5.3970 H   0  0  0  0  0  0  0  0  0  0  0  0
   23.5257   13.0048   -9.1650 H   0  0  0  0  0  0  0  0  0  0  0  0
   22.4258   13.4878   -6.9820 H   0  0  0  0  0  0  0  0  0  0  0  0
   23.2862   11.6474   -3.9098 H   0  0  0  0  0  0  0  0  0  0  0  0
   22.6184   13.1699   -4.5900 H   0  0  0  0  0  0  0  0  0  0  0  0
   21.6239   11.6740   -4.5900 H   0  0  0  0  0  0  0  0  0  0  0  0
   28.6756   12.1292  -10.0245 H   0  0  0  0  0  0  0  0  0  0  0  0
   29.0946   13.1637  -11.4319 H   0  0  0  0  0  0  0  0  0  0  0  0
   27.5635   12.2245  -11.4319 H   0  0  0  0  0  0  0  0  0  0  0  0
  5  1  1  0
  5 11  1  0
  1  2  2  0
  1  7  1  0
  2  3  1  0
  3  4  1  0
  4  8  2  0
  4  6  1  0
  6 10  1  0
  6  7  2  0
  8  9  1  0
  9 10  2  0
 10 23  1  0
 11 12  2  0
 11 15  1  0
 12 13  1  0
 13 16  1  0
 13 14  1  0
 14 15  2  0
 16 18  1  0
 16 17  2  0
 17 21  1  0
 18 19  2  0
 19 20  1  0
 20 21  2  0
 21 22  1  0
  2 24  1  0
  3 25  1  0
  7 26  1  0
  9 27  1  0
 14 28  1  0
 15 29  1  0
 17 30  1  0
 19 31  1  0
 20 32  1  0
 22 33  1  1
 22 34  1  0
 22 35  1  0
 23 36  1  1
 23 37  1  0
 23 38  1  0
M  END
>  <Pose ID>  (392)
390

>  <Score>  (392)
-5.7147536277771

>  <smiles>  (392)
Cc1ccnc(-n2ccc(Oc3c[nH]c4ncc(C)c-4c3)n2)c1

$$$$

     RDKit          3D

 34 37  0  0  0  0  0  0  0  0999 V2000
   27.8840    7.9150  -10.3030 C   0  0  0  0  0  0  0  0  0  0  0  0
   28.8250    7.1580  -10.9930 C   0  0  0  0  0  0  0  0  0  0  0  0
   29.7010    7.7770  -11.8750 N   0  0  0  0  0  0  0  0  0  0  0  0
   29.6400    9.1520  -12.0690 C   0  0  0  0  0  0  0  0  0  0  0  0
   27.0450    7.1180   -9.4120 O   0  0  0  0  0  0  0  0  0  0  0  0
   28.6970    9.9090  -11.3800 C   0  0  0  0  0  0  0  0  0  0  0  0
   27.8220    9.2890  -10.4970 C   0  0  0  0  0  0  0  0  0  0  0  0
   30.3680    9.9670  -12.8570 N   0  0  0  0  0  0  0  0  0  0  0  0
   29.9140   11.2570  -12.7000 C   0  0  0  0  0  0  0  0  0  0  0  0
   28.8780   11.0510  -11.7630 C   0  0  0  0  0  0  0  0  0  0  0  0
   26.2360    7.6590   -8.4050 C   0  0  0  0  0  0  0  0  0  0  0  0
   25.4640    8.7590   -8.7380 N   0  0  0  0  0  0  0  0  0  0  0  0
   24.8000    9.1280   -7.6350 N   0  0  0  0  0  0  0  0  0  0  0  0
   25.0840    8.2900   -6.5640 C   0  0  0  0  0  0  0  0  0  0  0  0
   25.9530    7.4110   -7.0740 C   0  0  0  0  0  0  0  0  0  0  0  0
   23.9050   10.1800   -7.4760 C   0  0  0  0  0  0  0  0  0  0  0  0
   23.2950   10.3930   -6.2460 N   0  0  0  0  0  0  0  0  0  0  0  0
   23.5780    9.5540   -5.1740 C   0  0  0  0  0  0  0  0  0  0  0  0
   24.4730    8.5030   -5.3330 C   0  0  0  0  0  0  0  0  0  0  0  0
   22.9150    9.7860   -3.8390 C   0  0  1  0  0  0  0  0  0  0  0  0
   23.5960   11.0900   -8.6380 C   0  0  1  0  0  0  0  0  0  0  0  0
   28.8753    6.0698  -10.8402 H   0  0  0  0  0  0  0  0  0  0  0  0
   30.3973    7.2161  -12.3864 H   0  0  0  0  0  0  0  0  0  0  0  0
   27.0784    9.8875   -9.9502 H   0  0  0  0  0  0  0  0  0  0  0  0
   30.2611   12.1878  -13.1723 H   0  0  0  0  0  0  0  0  0  0  0  0
   28.2618   11.8847  -11.3953 H   0  0  0  0  0  0  0  0  0  0  0  0
   26.3936    6.5831   -6.4992 H   0  0  0  0  0  0  0  0  0  0  0  0
   24.6982    7.8394   -4.4851 H   0  0  0  0  0  0  0  0  0  0  0  0
   23.6201    9.5393   -3.0316 H   0  0  0  0  0  0  0  0  0  0  0  0
   22.6173   10.8417   -3.7560 H   0  0  0  0  0  0  0  0  0  0  0  0
   22.0241    9.1462   -3.7560 H   0  0  0  0  0  0  0  0  0  0  0  0
   23.2639   12.0680   -8.2596 H   0  0  0  0  0  0  0  0  0  0  0  0
   24.4998   11.2217   -9.2510 H   0  0  0  0  0  0  0  0  0  0  0  0
   22.7989   10.6441   -9.2510 H   0  0  0  0  0  0  0  0  0  0  0  0
  5  1  1  0
  5 11  1  0
 11 12  2  0
 11 15  1  0
 12 13  1  0
 13 16  1  0
 13 14  1  0
 14 15  2  0
 14 19  1  0
 16 21  1  0
 16 17  2  0
 17 18  1  0
 18 19  2  0
 18 20  1  0
  1  2  2  0
  1  7  1  0
  2  3  1  0
  3  4  1  0
  4  8  2  0
  4  6  1  0
  6 10  1  0
  6  7  2  0
  8  9  1  0
  9 10  2  0
  2 22  1  0
  3 23  1  0
  7 24  1  0
  9 25  1  0
 10 26  1  0
 15 27  1  0
 19 28  1  0
 20 29  1  1
 20 30  1  0
 20 31  1  0
 21 32  1  1
 21 33  1  0
 21 34  1  0
M  END
>  <Pose ID>  (393)
295

>  <Score>  (393)
-5.713790416717529

>  <smiles>  (393)
Cc1cc2cc(Oc3c[nH]c4nccc-4c3)nn2c(C)n1

$$$$

     RDKit          3D

 35 38  0  0  0  0  0  0  0  0999 V2000
   27.7050    7.7930  -10.2740 C   0  0  0  0  0  0  0  0  0  0  0  0
   28.4540    7.0810  -11.2030 C   0  0  0  0  0  0  0  0  0  0  0  0
   29.2740    7.7570  -12.1000 N   0  0  0  0  0  0  0  0  0  0  0  0
   29.3470    9.1450  -12.0650 C   0  0  0  0  0  0  0  0  0  0  0  0
   26.9040    6.9380   -9.4030 O   0  0  0  0  0  0  0  0  0  0  0  0
   28.5970    9.8580  -11.1350 C   0  0  0  0  0  0  0  0  0  0  0  0
   27.7780    9.1800  -10.2380 C   0  0  0  0  0  0  0  0  0  0  0  0
   30.0570   10.0110  -12.8150 N   0  0  0  0  0  0  0  0  0  0  0  0
   29.7810   11.2920  -12.3930 C   0  0  0  0  0  0  0  0  0  0  0  0
   28.8570   11.0250  -11.3560 C   0  0  0  0  0  0  0  0  0  0  0  0
   26.3010    7.3700   -8.2170 C   0  0  0  0  0  0  0  0  0  0  0  0
   25.6250    8.5790   -8.2570 N   0  0  0  0  0  0  0  0  0  0  0  0
   25.1360    8.8350   -6.9880 N   0  0  0  0  0  0  0  0  0  0  0  0
   25.4820    7.8170   -6.1880 C   0  0  0  0  0  0  0  0  0  0  0  0
   26.1660    6.9270   -6.9120 C   0  0  0  0  0  0  0  0  0  0  0  0
   24.4550    9.9630   -6.6610 C   0  0  0  0  0  0  0  0  0  0  0  0
   23.1950    9.8880   -6.0760 C   0  0  0  0  0  0  0  0  0  0  0  0
   25.0490   11.2020   -6.8720 C   0  0  0  0  0  0  0  0  0  0  0  0
   24.3860   12.3640   -6.4970 C   0  0  0  0  0  0  0  0  0  0  0  0
   23.1280   12.2880   -5.9120 N   0  0  0  0  0  0  0  0  0  0  0  0
   22.5330   11.0510   -5.7020 C   0  0  0  0  0  0  0  0  0  0  0  0
   22.5480    8.5440   -5.8480 C   0  0  1  0  0  0  0  0  0  0  0  0
   28.3983    5.9827  -11.2289 H   0  0  0  0  0  0  0  0  0  0  0  0
   29.8272    7.2294  -12.7903 H   0  0  0  0  0  0  0  0  0  0  0  0
   27.1877    9.7424   -9.4996 H   0  0  0  0  0  0  0  0  0  0  0  0
   30.1700   12.2535  -12.7595 H   0  0  0  0  0  0  0  0  0  0  0  0
   28.3943   11.8367  -10.7755 H   0  0  0  0  0  0  0  0  0  0  0  0
   25.2434    7.7293   -5.1178 H   0  0  0  0  0  0  0  0  0  0  0  0
   26.5652    5.9773   -6.5264 H   0  0  0  0  0  0  0  0  0  0  0  0
   26.0445   11.2625   -7.3361 H   0  0  0  0  0  0  0  0  0  0  0  0
   24.8570   13.3441   -6.6632 H   0  0  0  0  0  0  0  0  0  0  0  0
   21.5368   10.9918   -5.2392 H   0  0  0  0  0  0  0  0  0  0  0  0
   22.4588    8.3586   -4.7674 H   0  0  0  0  0  0  0  0  0  0  0  0
   21.5475    8.5364   -6.3052 H   0  0  0  0  0  0  0  0  0  0  0  0
   23.1661    7.7572   -6.3052 H   0  0  0  0  0  0  0  0  0  0  0  0
 11  5  1  0
 11 12  2  0
 11 15  1  0
 12 13  1  0
 13 16  1  0
 13 14  1  0
 14 15  2  0
 16 18  1  0
 16 17  2  0
 17 22  1  0
 17 21  1  0
 18 19  2  0
 19 20  1  0
 20 21  2  0
  5  1  1  0
  1  2  2  0
  1  7  1  0
  2  3  1  0
  3  4  1  0
  4  8  2  0
  4  6  1  0
  6 10  1  0
  6  7  2  0
  8  9  1  0
  9 10  2  0
  2 23  1  0
  3 24  1  0
  7 25  1  0
  9 26  1  0
 10 27  1  0
 14 28  1  0
 15 29  1  0
 18 30  1  0
 19 31  1  0
 21 32  1  0
 22 33  1  1
 22 34  1  0
 22 35  1  0
M  END
>  <Pose ID>  (394)
258

>  <Score>  (394)
-5.707338333129883

>  <smiles>  (394)
Cc1cnccc1-n1ccc(Oc2c[nH]c3nccc-3c2)n1

$$$$

     RDKit          3D

 34 36  0  0  0  0  0  0  0  0999 V2000
   26.2600    9.4080   -8.8060 C   0  0  0  0  0  0  0  0  0  0  0  0
   25.7260   10.6360   -8.3980 N   0  0  0  0  0  0  0  0  0  0  0  0
   25.9520    8.1640   -8.2570 N   0  0  0  0  0  0  0  0  0  0  0  0
   26.5650    7.0200   -8.7550 C   0  0  0  0  0  0  0  0  0  0  0  0
   27.4810    7.1130   -9.7920 N   0  0  0  0  0  0  0  0  0  0  0  0
   27.7730    8.3390  -10.3300 C   0  0  0  0  0  0  0  0  0  0  0  0
   27.2770    9.5830   -9.9620 C   0  0  0  0  0  0  0  0  0  0  0  0
   24.5040   11.1540   -9.0290 C   0  0  1  0  0  0  0  0  0  0  0  0
   23.9900   12.3530   -8.6210 C   0  0  0  0  0  0  0  0  0  0  0  0
   26.7480   11.3300   -7.6300 C   0  0  1  0  0  0  0  0  0  0  0  0
   26.1420   12.0220   -6.3340 C   0  0  1  0  0  0  0  0  0  0  0  0
   25.0630   13.0450   -6.7490 C   0  0  1  0  0  0  0  0  0  0  0  0
   24.7500   13.3070   -7.9980 N   0  0  0  0  0  0  0  0  0  0  0  0
   22.7090   12.6760   -8.7970 O   0  0  0  0  0  0  0  0  0  0  0  0
   28.7020    8.2370  -11.3590 C   0  0  0  0  0  0  0  0  0  0  0  0
   29.1350    9.3810  -12.0190 N   0  0  0  0  0  0  0  0  0  0  0  0
   28.6390   10.6250  -11.6520 C   0  0  0  0  0  0  0  0  0  0  0  0
   27.7100   10.7270  -10.6220 C   0  0  0  0  0  0  0  0  0  0  0  0
   29.2410    6.8850  -11.7580 C   0  0  1  0  0  0  0  0  0  0  0  0
   26.3225    6.0371   -8.3248 H   0  0  0  0  0  0  0  0  0  0  0  0
   24.7142   11.2459  -10.1048 H   0  0  0  0  0  0  0  0  0  0  0  0
   23.7329   10.4285   -8.7307 H   0  0  0  0  0  0  0  0  0  0  0  0
   27.5153   10.6049   -7.3210 H   0  0  0  0  0  0  0  0  0  0  0  0
   27.1809   12.1154   -8.2670 H   0  0  0  0  0  0  0  0  0  0  0  0
   25.6901   11.2555   -5.6872 H   0  0  0  0  0  0  0  0  0  0  0  0
   26.9443   12.5391   -5.7873 H   0  0  0  0  0  0  0  0  0  0  0  0
   24.1313   12.7088   -6.2706 H   0  0  0  0  0  0  0  0  0  0  0  0
   25.5376   13.9899   -6.4458 H   0  0  0  0  0  0  0  0  0  0  0  0
   25.0544   14.1680   -8.4743 H   0  0  0  0  0  0  0  0  0  0  0  0
   28.9808   11.5298  -12.1759 H   0  0  0  0  0  0  0  0  0  0  0  0
   27.3182   11.7125  -10.3299 H   0  0  0  0  0  0  0  0  0  0  0  0
   29.4735    6.3018  -10.8547 H   0  0  0  0  0  0  0  0  0  0  0  0
   28.4869    6.3513  -12.3550 H   0  0  0  0  0  0  0  0  0  0  0  0
   30.1555    7.0165  -12.3550 H   0  0  0  0  0  0  0  0  0  0  0  0
  1  7  1  0
  1  2  1  0
  1  3  2  0
  2  8  1  0
  2 10  1  0
  3  4  1  0
  4  5  2  0
  5  6  1  0
  6 15  1  0
  6  7  2  0
  7 18  1  0
  8  9  1  0
  9 14  2  0
  9 13  1  0
 10 11  1  0
 11 12  1  0
 12 13  1  0
 15 16  2  0
 15 19  1  0
 16 17  1  0
 17 18  2  0
  4 20  1  0
  8 21  1  6
  8 22  1  0
 10 23  1  1
 10 24  1  0
 11 25  1  1
 11 26  1  0
 12 27  1  1
 12 28  1  0
 13 29  1  0
 17 30  1  0
 18 31  1  0
 19 32  1  1
 19 33  1  0
 19 34  1  0
M  END
>  <Pose ID>  (395)
47

>  <Score>  (395)
-5.707200050354004

>  <smiles>  (395)
Cc1nccc2c(N3CCCNC(=O)C3)ncnc12

$$$$

     RDKit          3D

 19 20  0  0  0  0  0  0  0  0999 V2000
   27.7470    7.9370   -9.8410 C   0  0  0  0  0  0  0  0  0  0  0  0
   28.6040    7.2210  -10.6680 C   0  0  0  0  0  0  0  0  0  0  0  0
   29.2590    7.8620  -11.7120 N   0  0  0  0  0  0  0  0  0  0  0  0
   27.1470    7.1160   -8.7890 O   0  0  0  0  0  0  0  0  0  0  0  0
   29.0600    9.2210  -11.9290 C   0  0  0  0  0  0  0  0  0  0  0  0
   28.2030    9.9370  -11.1010 C   0  0  0  0  0  0  0  0  0  0  0  0
   27.5460    9.2940  -10.0570 C   0  0  0  0  0  0  0  0  0  0  0  0
   29.5720   10.0500  -12.8560 N   0  0  0  0  0  0  0  0  0  0  0  0
   29.0600   11.3110  -12.6560 C   0  0  0  0  0  0  0  0  0  0  0  0
   28.2250   11.0730  -11.5420 C   0  0  0  0  0  0  0  0  0  0  0  0
   25.6690    7.0740   -8.6150 C   0  0  1  0  0  0  0  0  0  0  0  0
   28.7638    6.1464  -10.4959 H   0  0  0  0  0  0  0  0  0  0  0  0
   29.8925    7.3302  -12.3258 H   0  0  0  0  0  0  0  0  0  0  0  0
   26.8672    9.8605   -9.4025 H   0  0  0  0  0  0  0  0  0  0  0  0
   29.2481   12.2433  -13.2087 H   0  0  0  0  0  0  0  0  0  0  0  0
   27.6222   11.8761  -11.0930 H   0  0  0  0  0  0  0  0  0  0  0  0
   25.4262    7.0671   -7.5422 H   0  0  0  0  0  0  0  0  0  0  0  0
   25.2189    7.9597   -9.0871 H   0  0  0  0  0  0  0  0  0  0  0  0
   25.2699    6.1642   -9.0871 H   0  0  0  0  0  0  0  0  0  0  0  0
  1  2  2  0
  1  7  1  0
  1  4  1  0
  2  3  1  0
  3  5  1  0
  5  8  2  0
  5  6  1  0
  6 10  1  0
  6  7  2  0
  8  9  1  0
  9 10  2  0
  4 11  1  0
  2 12  1  0
  3 13  1  0
  7 14  1  0
  9 15  1  0
 10 16  1  0
 11 17  1  1
 11 18  1  0
 11 19  1  0
M  END
>  <Pose ID>  (396)
145

>  <Score>  (396)
-5.704544544219971

>  <smiles>  (396)
COc1c[nH]c2nccc-2c1

$$$$

     RDKit          3D

 40 43  0  0  0  0  0  0  0  0999 V2000
   27.5390    7.6510  -10.0900 C   0  0  0  0  0  0  0  0  0  0  0  0
   28.4910    7.0370  -10.8920 C   0  0  0  0  0  0  0  0  0  0  0  0
   29.2300    7.7930  -11.7950 N   0  0  0  0  0  0  0  0  0  0  0  0
   29.0190    9.1620  -11.8940 C   0  0  0  0  0  0  0  0  0  0  0  0
   26.8550    6.7240   -9.1910 O   0  0  0  0  0  0  0  0  0  0  0  0
   28.0640    9.7770  -11.0890 C   0  0  0  0  0  0  0  0  0  0  0  0
   27.3270    9.0210  -10.1860 C   0  0  0  0  0  0  0  0  0  0  0  0
   29.5990   10.0920  -12.6770 N   0  0  0  0  0  0  0  0  0  0  0  0
   29.0330   11.3180  -12.4030 C   0  0  0  0  0  0  0  0  0  0  0  0
   28.1020   10.9520  -11.4080 C   0  0  0  0  0  0  0  0  0  0  0  0
   26.0780    7.1190   -8.0960 C   0  0  0  0  0  0  0  0  0  0  0  0
   25.1770    8.1510   -8.3000 N   0  0  0  0  0  0  0  0  0  0  0  0
   24.5790    8.3860   -7.1610 N   0  0  0  0  0  0  0  0  0  0  0  0
   24.9920    7.5690   -6.1150 C   0  0  0  0  0  0  0  0  0  0  0  0
   25.9260    6.7670   -6.7670 C   0  0  0  0  0  0  0  0  0  0  0  0
   23.5990    9.3480   -6.9450 C   0  0  0  0  0  0  0  0  0  0  0  0
   23.0300    9.4930   -5.6850 C   0  0  0  0  0  0  0  0  0  0  0  0
   23.4430    8.6740   -4.6390 C   0  0  0  0  0  0  0  0  0  0  0  0
   24.4240    7.7130   -4.8550 C   0  0  0  0  0  0  0  0  0  0  0  0
   22.0670   10.3490   -5.2300 N   0  0  0  0  0  0  0  0  0  0  0  0
   22.4420   11.4950   -4.3880 C   0  0  1  0  0  0  0  0  0  0  0  0
   20.6730    9.8920   -5.2490 C   0  0  1  0  0  0  0  0  0  0  0  0
   23.1610   12.6280   -5.1230 C   0  0  1  0  0  0  0  0  0  0  0  0
   28.6607    5.9530  -10.8132 H   0  0  0  0  0  0  0  0  0  0  0  0
   29.9351    7.3370  -12.3915 H   0  0  0  0  0  0  0  0  0  0  0  0
   26.5753    9.5071   -9.5467 H   0  0  0  0  0  0  0  0  0  0  0  0
   29.2470   12.3054  -12.8381 H   0  0  0  0  0  0  0  0  0  0  0  0
   27.4394   11.6953  -10.9407 H   0  0  0  0  0  0  0  0  0  0  0  0
   26.4783    5.9490   -6.2814 H   0  0  0  0  0  0  0  0  0  0  0  0
   23.2733    9.9955   -7.7724 H   0  0  0  0  0  0  0  0  0  0  0  0
   22.9935    8.7868   -3.6414 H   0  0  0  0  0  0  0  0  0  0  0  0
   24.7509    7.0659   -4.0277 H   0  0  0  0  0  0  0  0  0  0  0  0
   21.5243   11.9057   -3.9418 H   0  0  0  0  0  0  0  0  0  0  0  0
   23.1544   11.1101   -3.6435 H   0  0  0  0  0  0  0  0  0  0  0  0
   20.3118    9.7736   -4.2167 H   0  0  0  0  0  0  0  0  0  0  0  0
   20.0512   10.6333   -5.7723 H   0  0  0  0  0  0  0  0  0  0  0  0
   20.6108    8.9264   -5.7723 H   0  0  0  0  0  0  0  0  0  0  0  0
   23.6003   13.3202   -4.3896 H   0  0  0  0  0  0  0  0  0  0  0  0
   23.9582   12.2080   -5.7539 H   0  0  0  0  0  0  0  0  0  0  0  0
   22.4415   13.1704   -5.7539 H   0  0  0  0  0  0  0  0  0  0  0  0
 11  5  1  0
 11 12  2  0
 11 15  1  0
 12 13  1  0
 13 16  1  0
 13 14  1  0
 14 15  2  0
 14 19  1  0
 16 17  2  0
 17 20  1  0
 17 18  1  0
 18 19  2  0
 20 22  1  0
 20 21  1  0
 21 23  1  0
  5  1  1  0
  1  2  2  0
  1  7  1  0
  2  3  1  0
  3  4  1  0
  4  8  2  0
  4  6  1  0
  6 10  1  0
  6  7  2  0
  8  9  1  0
  9 10  2  0
  2 24  1  0
  3 25  1  0
  7 26  1  0
  9 27  1  0
 10 28  1  0
 15 29  1  0
 16 30  1  0
 18 31  1  0
 19 32  1  0
 21 33  1  1
 21 34  1  0
 22 35  1  1
 22 36  1  0
 22 37  1  0
 23 38  1  1
 23 39  1  0
 23 40  1  0
M  END
>  <Pose ID>  (397)
336

>  <Score>  (397)
-5.70422887802124

>  <smiles>  (397)
CCN(C)c1ccc2cc(Oc3c[nH]c4nccc-4c3)nn2c1

$$$$

     RDKit          3D

 15 16  0  0  0  0  0  0  0  0999 V2000
   28.6410    9.7050  -12.0190 C   0  0  0  0  0  0  0  0  0  0  0  0
   29.3050    8.4960  -11.9470 C   0  0  0  0  0  0  0  0  0  0  0  0
   28.8530    7.5080  -11.0800 N   0  0  0  0  0  0  0  0  0  0  0  0
   27.7480    7.7430  -10.2720 C   0  0  0  0  0  0  0  0  0  0  0  0
   27.5450    9.9580  -11.1960 C   0  0  0  0  0  0  0  0  0  0  0  0
   27.0940    8.9690  -10.3300 C   0  0  0  0  0  0  0  0  0  0  0  0
   27.1350    6.9580   -9.3690 N   0  0  0  0  0  0  0  0  0  0  0  0
   26.0790    7.6520   -8.8210 C   0  0  0  0  0  0  0  0  0  0  0  0
   26.1940    8.8780   -9.5140 C   0  0  0  0  0  0  0  0  0  0  0  0
   28.9793   10.4729  -12.7303 H   0  0  0  0  0  0  0  0  0  0  0  0
   30.1900    8.3153  -12.5747 H   0  0  0  0  0  0  0  0  0  0  0  0
   29.3381    6.6004  -11.0367 H   0  0  0  0  0  0  0  0  0  0  0  0
   27.0400   10.9346  -11.2317 H   0  0  0  0  0  0  0  0  0  0  0  0
   25.3507    7.3396   -8.0581 H   0  0  0  0  0  0  0  0  0  0  0  0
   25.5024    9.7123   -9.3253 H   0  0  0  0  0  0  0  0  0  0  0  0
  1  2  2  0
  1  5  1  0
  2  3  1  0
  3  4  1  0
  4  6  1  0
  4  7  2  0
  5  6  2  0
  6  9  1  0
  7  8  1  0
  8  9  2  0
  1 10  1  0
  2 11  1  0
  3 12  1  0
  5 13  1  0
  8 14  1  0
  9 15  1  0
M  END
>  <Pose ID>  (398)
188

>  <Score>  (398)
-5.701895713806152

>  <smiles>  (398)
c1c[nH]c2nccc-2c1

$$$$

     RDKit          3D

 19 20  0  0  0  0  0  0  0  0999 V2000
   29.1150    7.6870  -11.5020 C   0  0  0  0  0  0  0  0  0  0  0  0
   28.4700    7.0530  -10.4490 N   0  0  0  0  0  0  0  0  0  0  0  0
   27.4460    7.7010   -9.7690 C   0  0  0  0  0  0  0  0  0  0  0  0
   26.9210    6.9970   -8.7720 N   0  0  0  0  0  0  0  0  0  0  0  0
   25.8910    7.5740   -8.0410 C   0  0  0  0  0  0  0  0  0  0  0  0
   25.4330    8.8440   -8.3670 C   0  0  0  0  0  0  0  0  0  0  0  0
   26.0110    9.5410   -9.4220 C   0  0  0  0  0  0  0  0  0  0  0  0
   27.0660    8.9840  -10.1450 C   0  0  0  0  0  0  0  0  0  0  0  0
   28.7360    8.9710  -11.8800 C   0  0  0  0  0  0  0  0  0  0  0  0
   27.7110    9.6190  -11.1990 C   0  0  0  0  0  0  0  0  0  0  0  0
   27.2980   11.0120  -11.6060 C   0  0  1  0  0  0  0  0  0  0  0  0
   29.9267    7.1735  -12.0382 H   0  0  0  0  0  0  0  0  0  0  0  0
   25.4374    7.0247   -7.2029 H   0  0  0  0  0  0  0  0  0  0  0  0
   24.6134    9.2981   -7.7908 H   0  0  0  0  0  0  0  0  0  0  0  0
   25.6336   10.5392   -9.6886 H   0  0  0  0  0  0  0  0  0  0  0  0
   29.2459    9.4727  -12.7157 H   0  0  0  0  0  0  0  0  0  0  0  0
   27.1181   11.6187  -10.7063 H   0  0  0  0  0  0  0  0  0  0  0  0
   28.0985   11.4717  -12.2042 H   0  0  0  0  0  0  0  0  0  0  0  0
   26.3763   10.9611  -12.2042 H   0  0  0  0  0  0  0  0  0  0  0  0
  1  9  2  0
  1  2  1  0
  2  3  2  0
  3  8  1  0
  3  4  1  0
  4  5  2  0
  5  6  1  0
  6  7  2  0
  7  8  1  0
  8 10  2  0
  9 10  1  0
 10 11  1  0
  1 12  1  0
  5 13  1  0
  6 14  1  0
  7 15  1  0
  9 16  1  0
 11 17  1  1
 11 18  1  0
 11 19  1  0
M  END
>  <Pose ID>  (399)
86

>  <Score>  (399)
-5.700584888458252

>  <smiles>  (399)
Cc1ccnc2ncccc12

$$$$

     RDKit          3D

 37 40  0  0  0  0  0  0  0  0999 V2000
   27.3570    8.2700  -10.2750 C   0  0  0  0  0  0  0  0  0  0  0  0
   28.1060    7.3290  -10.9680 C   0  0  0  0  0  0  0  0  0  0  0  0
   29.1420    7.7400  -11.7980 N   0  0  0  0  0  0  0  0  0  0  0  0
   29.4270    9.0930  -11.9370 C   0  0  0  0  0  0  0  0  0  0  0  0
   26.3130    7.6790   -9.4440 O   0  0  0  0  0  0  0  0  0  0  0  0
   28.6740   10.0360  -11.2440 C   0  0  0  0  0  0  0  0  0  0  0  0
   27.6410    9.6240  -10.4130 C   0  0  0  0  0  0  0  0  0  0  0  0
   30.3650    9.7280  -12.6690 N   0  0  0  0  0  0  0  0  0  0  0  0
   30.2360   11.0840  -12.4710 C   0  0  0  0  0  0  0  0  0  0  0  0
   29.1460   11.1100  -11.5730 C   0  0  0  0  0  0  0  0  0  0  0  0
   25.6240    8.3680   -8.4370 C   0  0  0  0  0  0  0  0  0  0  0  0
   25.1590    9.6360   -8.7480 N   0  0  0  0  0  0  0  0  0  0  0  0
   24.5740   10.1170   -7.6740 N   0  0  0  0  0  0  0  0  0  0  0  0
   24.5690    9.2620   -6.5790 C   0  0  0  0  0  0  0  0  0  0  0  0
   25.2360    8.1540   -7.1270 C   0  0  0  0  0  0  0  0  0  0  0  0
   23.9760   11.3680   -7.5810 C   0  0  0  0  0  0  0  0  0  0  0  0
   23.3740   11.7650   -6.3950 C   0  0  0  0  0  0  0  0  0  0  0  0
   23.3700   10.9090   -5.2990 C   0  0  0  0  0  0  0  0  0  0  0  0
   23.9660    9.6580   -5.3910 N   0  0  0  0  0  0  0  0  0  0  0  0
   31.0340   12.2240  -13.0520 C   0  0  1  0  0  0  0  0  0  0  0  0
   30.0890   12.8700  -14.0440 C   0  0  1  0  0  0  0  0  0  0  0  0
   25.4980    6.8740   -6.3710 C   0  0  1  0  0  0  0  0  0  0  0  0
   27.8795    6.2580  -10.8602 H   0  0  0  0  0  0  0  0  0  0  0  0
   29.6990    7.0414  -12.3105 H   0  0  0  0  0  0  0  0  0  0  0  0
   27.0470   10.3691   -9.8635 H   0  0  0  0  0  0  0  0  0  0  0  0
   28.7413   12.0576  -11.1879 H   0  0  0  0  0  0  0  0  0  0  0  0
   23.9797   12.0445   -8.4484 H   0  0  0  0  0  0  0  0  0  0  0  0
   22.9007   12.7553   -6.3221 H   0  0  0  0  0  0  0  0  0  0  0  0
   22.8943   11.2231   -4.3582 H   0  0  0  0  0  0  0  0  0  0  0  0
   31.3234   12.9379  -12.2668 H   0  0  0  0  0  0  0  0  0  0  0  0
   31.9711   11.8876  -13.5197 H   0  0  0  0  0  0  0  0  0  0  0  0
   29.2995   13.4097  -13.5004 H   0  0  0  0  0  0  0  0  0  0  0  0
   30.6475   13.5762  -14.6760 H   0  0  0  0  0  0  0  0  0  0  0  0
   29.6337   12.0933  -14.6760 H   0  0  0  0  0  0  0  0  0  0  0  0
   25.4575    7.0719   -5.2897 H   0  0  0  0  0  0  0  0  0  0  0  0
   24.7338    6.1285   -6.6362 H   0  0  0  0  0  0  0  0  0  0  0  0
   26.4936    6.4888   -6.6362 H   0  0  0  0  0  0  0  0  0  0  0  0
  1  2  2  0
  1  7  1  0
  1  5  1  0
  2  3  1  0
  3  4  1  0
  4  8  2  0
  4  6  1  0
  6 10  1  0
  6  7  2  0
  8  9  1  0
  9 20  1  0
  9 10  2  0
 20 21  1  0
  5 11  1  0
 11 12  2  0
 11 15  1  0
 12 13  1  0
 13 16  1  0
 13 14  1  0
 14 15  2  0
 14 19  1  0
 15 22  1  0
 16 17  2  0
 17 18  1  0
 18 19  2  0
  2 23  1  0
  3 24  1  0
  7 25  1  0
 10 26  1  0
 16 27  1  0
 17 28  1  0
 18 29  1  0
 20 30  1  1
 20 31  1  0
 21 32  1  1
 21 33  1  0
 21 34  1  0
 22 35  1  1
 22 36  1  0
 22 37  1  0
M  END
>  <Pose ID>  (400)
367

>  <Score>  (400)
-5.70017671585083

>  <smiles>  (400)
CCc1cc2cc(Oc3nn4cccnc4c3C)c[nH]c-2n1

$$$$

     RDKit          3D

 33 36  0  0  0  0  0  0  0  0999 V2000
   27.3310    8.0240  -10.2400 C   0  0  0  0  0  0  0  0  0  0  0  0
   28.3240    7.2040  -10.7520 C   0  0  0  0  0  0  0  0  0  0  0  0
   29.3100    7.7350  -11.5730 N   0  0  0  0  0  0  0  0  0  0  0  0
   26.5050    7.2920   -9.4740 N   0  0  0  0  0  0  0  0  0  0  0  0
   29.3030    9.0910  -11.8800 C   0  0  0  0  0  0  0  0  0  0  0  0
   28.3070    9.9130  -11.3660 C   0  0  0  0  0  0  0  0  0  0  0  0
   27.3210    9.3820  -10.5460 C   0  0  0  0  0  0  0  0  0  0  0  0
   30.1360    9.8260  -12.6360 N   0  0  0  0  0  0  0  0  0  0  0  0
   29.7000   11.1320  -12.6310 C   0  0  0  0  0  0  0  0  0  0  0  0
   28.5580   11.0190  -11.8100 C   0  0  0  0  0  0  0  0  0  0  0  0
   26.0570    7.7130   -8.1860 C   0  0  0  0  0  0  0  0  0  0  0  0
   25.3770    6.7980   -7.3910 N   0  0  0  0  0  0  0  0  0  0  0  0
   24.8220    7.2020   -6.1820 C   0  0  0  0  0  0  0  0  0  0  0  0
   24.9470    8.5240   -5.7690 C   0  0  0  0  0  0  0  0  0  0  0  0
   25.6280    9.4400   -6.5650 C   0  0  0  0  0  0  0  0  0  0  0  0
   26.2070    9.0250   -7.7590 C   0  0  0  0  0  0  0  0  0  0  0  0
   24.2130    6.3820   -5.4720 O   0  0  0  0  0  0  0  0  0  0  0  0
   25.8670   10.8150   -6.3870 C   0  0  0  0  0  0  0  0  0  0  0  0
   26.5300   11.6240   -7.1570 N   0  0  0  0  0  0  0  0  0  0  0  0
   26.4040   12.8790   -6.5110 O   0  0  0  0  0  0  0  0  0  0  0  0
   25.2920   11.5050   -5.2300 C   0  0  0  0  0  0  0  0  0  0  0  0
   25.7460   12.8360   -5.4500 C   0  0  0  0  0  0  0  0  0  0  0  0
   28.3311    6.1315  -10.5078 H   0  0  0  0  0  0  0  0  0  0  0  0
   30.0465    7.1243  -11.9545 H   0  0  0  0  0  0  0  0  0  0  0  0
   26.1794    6.3834   -9.8335 H   0  0  0  0  0  0  0  0  0  0  0  0
   26.5333   10.0329  -10.1388 H   0  0  0  0  0  0  0  0  0  0  0  0
   30.1238   12.0169  -13.1284 H   0  0  0  0  0  0  0  0  0  0  0  0
   27.9244   11.8887  -11.5818 H   0  0  0  0  0  0  0  0  0  0  0  0
   25.2841    5.8192   -7.6980 H   0  0  0  0  0  0  0  0  0  0  0  0
   24.5076    8.8456   -4.8132 H   0  0  0  0  0  0  0  0  0  0  0  0
   26.7848    9.7375   -8.3660 H   0  0  0  0  0  0  0  0  0  0  0  0
   24.6759   11.1032   -4.4121 H   0  0  0  0  0  0  0  0  0  0  0  0
   25.5483   13.6928   -4.7891 H   0  0  0  0  0  0  0  0  0  0  0  0
 11  4  1  0
 11 16  2  0
 11 12  1  0
 12 13  1  0
 13 14  1  0
 13 17  2  0
 14 15  2  0
 15 16  1  0
 15 18  1  0
 18 19  2  0
 18 21  1  0
 19 20  1  0
 20 22  1  0
 21 22  2  0
  4  1  1  0
  1  2  2  0
  1  7  1  0
  2  3  1  0
  3  5  1  0
  5  8  2  0
  5  6  1  0
  6 10  1  0
  6  7  2  0
  8  9  1  0
  9 10  2  0
  2 23  1  0
  3 24  1  0
  4 25  1  0
  7 26  1  0
  9 27  1  0
 10 28  1  0
 12 29  1  0
 14 30  1  0
 16 31  1  0
 21 32  1  0
 22 33  1  0
M  END
>  <Pose ID>  (401)
127

>  <Score>  (401)
-5.6960649490356445

>  <smiles>  (401)
O=c1cc(-c2ccon2)cc(Nc2c[nH]c3nccc-3c2)[nH]1

$$$$

     RDKit          3D

 35 38  0  0  0  0  0  0  0  0999 V2000
   27.8700    7.9080  -10.2970 C   0  0  0  0  0  0  0  0  0  0  0  0
   28.7970    7.1530  -11.0050 C   0  0  0  0  0  0  0  0  0  0  0  0
   29.6690    7.7790  -11.8900 N   0  0  0  0  0  0  0  0  0  0  0  0
   29.6130    9.1560  -12.0650 C   0  0  0  0  0  0  0  0  0  0  0  0
   27.0340    7.1060   -9.4070 O   0  0  0  0  0  0  0  0  0  0  0  0
   28.6840    9.9100  -11.3560 C   0  0  0  0  0  0  0  0  0  0  0  0
   27.8140    9.2840  -10.4710 C   0  0  0  0  0  0  0  0  0  0  0  0
   30.3400    9.9770  -12.8500 N   0  0  0  0  0  0  0  0  0  0  0  0
   29.8950   11.2680  -12.6720 C   0  0  0  0  0  0  0  0  0  0  0  0
   28.8690   11.0560  -11.7250 C   0  0  0  0  0  0  0  0  0  0  0  0
   26.2400    7.6380   -8.3840 C   0  0  0  0  0  0  0  0  0  0  0  0
   25.4700    8.7470   -8.6950 N   0  0  0  0  0  0  0  0  0  0  0  0
   24.8320    9.1040   -7.6110 N   0  0  0  0  0  0  0  0  0  0  0  0
   25.0880    8.3050   -6.5040 C   0  0  0  0  0  0  0  0  0  0  0  0
   25.9680    7.3740   -7.0530 C   0  0  0  0  0  0  0  0  0  0  0  0
   23.9500   10.1740   -7.5070 C   0  0  0  0  0  0  0  0  0  0  0  0
   23.3250   10.4430   -6.2960 C   0  0  0  0  0  0  0  0  0  0  0  0
   23.5800    9.6440   -5.1880 C   0  0  0  0  0  0  0  0  0  0  0  0
   24.4620    8.5730   -5.2930 C   0  0  0  0  0  0  0  0  0  0  0  0
   22.9010    9.9370   -3.8730 C   0  0  1  0  0  0  0  0  0  0  0  0
   23.6720   11.0420   -8.7090 C   0  0  1  0  0  0  0  0  0  0  0  0
   28.8413    6.0627  -10.8661 H   0  0  0  0  0  0  0  0  0  0  0  0
   30.3567    7.2210  -12.4159 H   0  0  0  0  0  0  0  0  0  0  0  0
   27.0804    9.8796   -9.9079 H   0  0  0  0  0  0  0  0  0  0  0  0
   30.2416   12.2026  -13.1372 H   0  0  0  0  0  0  0  0  0  0  0  0
   28.2637   11.8889  -11.3378 H   0  0  0  0  0  0  0  0  0  0  0  0
   26.3960    6.5288   -6.4941 H   0  0  0  0  0  0  0  0  0  0  0  0
   22.6274   11.2895   -6.2140 H   0  0  0  0  0  0  0  0  0  0  0  0
   24.6636    7.9386   -4.4173 H   0  0  0  0  0  0  0  0  0  0  0  0
   23.5660    9.6501   -3.0451 H   0  0  0  0  0  0  0  0  0  0  0  0
   22.6768   11.0119   -3.8076 H   0  0  0  0  0  0  0  0  0  0  0  0
   21.9651    9.3626   -3.8076 H   0  0  0  0  0  0  0  0  0  0  0  0
   23.3524   12.0400   -8.3746 H   0  0  0  0  0  0  0  0  0  0  0  0
   24.5858   11.1334   -9.3145 H   0  0  0  0  0  0  0  0  0  0  0  0
   22.8751   10.5855   -9.3145 H   0  0  0  0  0  0  0  0  0  0  0  0
  5  1  1  0
  5 11  1  0
 11 12  2  0
 11 15  1  0
 12 13  1  0
 13 16  1  0
 13 14  1  0
 14 15  2  0
 14 19  1  0
 16 21  1  0
 16 17  2  0
 17 18  1  0
 18 19  2  0
 18 20  1  0
  1  2  2  0
  1  7  1  0
  2  3  1  0
  3  4  1  0
  4  8  2  0
  4  6  1  0
  6 10  1  0
  6  7  2  0
  8  9  1  0
  9 10  2  0
  2 22  1  0
  3 23  1  0
  7 24  1  0
  9 25  1  0
 10 26  1  0
 15 27  1  0
 17 28  1  0
 19 29  1  0
 20 30  1  1
 20 31  1  0
 20 32  1  0
 21 33  1  1
 21 34  1  0
 21 35  1  0
M  END
>  <Pose ID>  (402)
343

>  <Score>  (402)
-5.695230007171631

>  <smiles>  (402)
Cc1cc(C)n2nc(Oc3c[nH]c4nccc-4c3)cc2c1

$$$$

     RDKit          3D

 35 38  0  0  0  0  0  0  0  0999 V2000
   27.7120    7.7810  -10.2040 C   0  0  0  0  0  0  0  0  0  0  0  0
   28.5650    7.0790  -11.0500 C   0  0  0  0  0  0  0  0  0  0  0  0
   29.3610    7.7660  -11.9580 N   0  0  0  0  0  0  0  0  0  0  0  0
   29.3070    9.1540  -12.0210 C   0  0  0  0  0  0  0  0  0  0  0  0
   26.9520    6.9160   -9.3050 O   0  0  0  0  0  0  0  0  0  0  0  0
   28.4530    9.8550  -11.1750 C   0  0  0  0  0  0  0  0  0  0  0  0
   27.6600    9.1670  -10.2650 C   0  0  0  0  0  0  0  0  0  0  0  0
   29.9680   10.0290  -12.8030 N   0  0  0  0  0  0  0  0  0  0  0  0
   29.5570   11.3040  -12.4860 C   0  0  0  0  0  0  0  0  0  0  0  0
   28.6180   11.0260  -11.4700 C   0  0  0  0  0  0  0  0  0  0  0  0
   26.2610    7.3710   -8.1790 C   0  0  0  0  0  0  0  0  0  0  0  0
   25.4780    8.5060   -8.3320 N   0  0  0  0  0  0  0  0  0  0  0  0
   24.9120    8.8010   -7.1060 N   0  0  0  0  0  0  0  0  0  0  0  0
   25.3120    7.8770   -6.2200 C   0  0  0  0  0  0  0  0  0  0  0  0
   26.1050    7.0070   -6.8520 C   0  0  0  0  0  0  0  0  0  0  0  0
   24.0920    9.8620   -6.8790 C   0  0  0  0  0  0  0  0  0  0  0  0
   24.5470   11.1360   -7.1980 C   0  0  0  0  0  0  0  0  0  0  0  0
   22.9890    9.7060   -6.0470 C   0  0  0  0  0  0  0  0  0  0  0  0
   22.3410   10.8240   -5.5360 N   0  0  0  0  0  0  0  0  0  0  0  0
   23.8980   12.2540   -6.6870 C   0  0  0  0  0  0  0  0  0  0  0  0
   22.7910   12.0910   -5.8590 C   0  0  0  0  0  0  0  0  0  0  0  0
   22.4960    8.3230   -5.6990 C   0  0  1  0  0  0  0  0  0  0  0  0
   28.6090    5.9810  -10.9999 H   0  0  0  0  0  0  0  0  0  0  0  0
   29.9918    7.2467  -12.5851 H   0  0  0  0  0  0  0  0  0  0  0  0
   26.9898    9.7214   -9.5917 H   0  0  0  0  0  0  0  0  0  0  0  0
   29.8725   12.2700  -12.9072 H   0  0  0  0  0  0  0  0  0  0  0  0
   28.0602   11.8297  -10.9671 H   0  0  0  0  0  0  0  0  0  0  0  0
   25.0349    7.8415   -5.1561 H   0  0  0  0  0  0  0  0  0  0  0  0
   26.5686    6.1259   -6.3842 H   0  0  0  0  0  0  0  0  0  0  0  0
   25.4207   11.2595   -7.8548 H   0  0  0  0  0  0  0  0  0  0  0  0
   24.2577   13.2633   -6.9359 H   0  0  0  0  0  0  0  0  0  0  0  0
   22.2715   12.9745   -5.4596 H   0  0  0  0  0  0  0  0  0  0  0  0
   22.4565    8.2122   -4.6053 H   0  0  0  0  0  0  0  0  0  0  0  0
   21.4900    8.1759   -6.1190 H   0  0  0  0  0  0  0  0  0  0  0  0
   23.1820    7.5727   -6.1190 H   0  0  0  0  0  0  0  0  0  0  0  0
 11  5  1  0
 11 12  2  0
 11 15  1  0
 12 13  1  0
 13 16  1  0
 13 14  1  0
 14 15  2  0
 16 17  2  0
 16 18  1  0
 17 20  1  0
 18 22  1  0
 18 19  2  0
 19 21  1  0
 20 21  2  0
  5  1  1  0
  1  2  2  0
  1  7  1  0
  2  3  1  0
  3  4  1  0
  4  8  2  0
  4  6  1  0
  6 10  1  0
  6  7  2  0
  8  9  1  0
  9 10  2  0
  2 23  1  0
  3 24  1  0
  7 25  1  0
  9 26  1  0
 10 27  1  0
 14 28  1  0
 15 29  1  0
 17 30  1  0
 20 31  1  0
 21 32  1  0
 22 33  1  1
 22 34  1  0
 22 35  1  0
M  END
>  <Pose ID>  (403)
469

>  <Score>  (403)
-5.693892955780029

>  <smiles>  (403)
Cc1ncccc1-n1ccc(Oc2c[nH]c3nccc-3c2)n1

$$$$

     RDKit          3D

 20 21  0  0  0  0  0  0  0  0999 V2000
   27.3040    7.7520   -9.6400 C   0  0  0  0  0  0  0  0  0  0  0  0
   28.2700    6.9480  -10.2020 N   0  0  0  0  0  0  0  0  0  0  0  0
   29.0100    7.4410  -11.2690 C   0  0  0  0  0  0  0  0  0  0  0  0
   27.1840    9.0450  -10.1360 C   0  0  0  0  0  0  0  0  0  0  0  0
   28.7750    8.7260  -11.7420 C   0  0  0  0  0  0  0  0  0  0  0  0
   27.8600    9.5410  -11.1170 C   0  0  0  0  0  0  0  0  0  0  0  0
   26.5060    7.3380   -8.5790 C   0  0  0  0  0  0  0  0  0  0  0  0
   25.5900    8.2190   -8.0140 C   0  0  0  0  0  0  0  0  0  0  0  0
   25.4710    9.5100   -8.5110 C   0  0  0  0  0  0  0  0  0  0  0  0
   26.2680    9.9240   -9.5720 C   0  0  0  0  0  0  0  0  0  0  0  0
   24.7260    7.7710   -6.8600 C   0  0  1  0  0  0  0  0  0  0  0  0
   29.7819    6.8142  -11.7394 H   0  0  0  0  0  0  0  0  0  0  0  0
   29.3239    9.0938  -12.6215 H   0  0  0  0  0  0  0  0  0  0  0  0
   27.7095   10.5809  -11.4425 H   0  0  0  0  0  0  0  0  0  0  0  0
   26.5992    6.3145   -8.1869 H   0  0  0  0  0  0  0  0  0  0  0  0
   24.7453   10.2059   -8.0647 H   0  0  0  0  0  0  0  0  0  0  0  0
   26.1734   10.9471   -9.9648 H   0  0  0  0  0  0  0  0  0  0  0  0
   25.2200    8.0271   -5.9111 H   0  0  0  0  0  0  0  0  0  0  0  0
   23.7508    8.2770   -6.9140 H   0  0  0  0  0  0  0  0  0  0  0  0
   24.5777    6.6824   -6.9140 H   0  0  0  0  0  0  0  0  0  0  0  0
  1  2  2  0
  1  4  1  0
  1  7  1  0
  2  3  1  0
  3  5  2  0
  4  6  2  0
  4 10  1  0
  5  6  1  0
  7  8  2  0
  8  9  1  0
  8 11  1  0
  9 10  2  0
  3 12  1  0
  5 13  1  0
  6 14  1  0
  7 15  1  0
  9 16  1  0
 10 17  1  0
 11 18  1  1
 11 19  1  0
 11 20  1  0
M  END
>  <Pose ID>  (404)
88

>  <Score>  (404)
-5.6916890144348145

>  <smiles>  (404)
Cc1ccc2cccnc2c1

$$$$

     RDKit          3D

 34 37  0  0  0  0  0  0  0  0999 V2000
   27.8480    7.9020  -10.2650 C   0  0  0  0  0  0  0  0  0  0  0  0
   28.7720    7.1530  -10.9820 C   0  0  0  0  0  0  0  0  0  0  0  0
   29.6290    7.7800  -11.8780 N   0  0  0  0  0  0  0  0  0  0  0  0
   29.5630    9.1570  -12.0570 C   0  0  0  0  0  0  0  0  0  0  0  0
   27.0270    7.0990   -9.3630 O   0  0  0  0  0  0  0  0  0  0  0  0
   28.6360    9.9070  -11.3390 C   0  0  0  0  0  0  0  0  0  0  0  0
   27.7800    9.2790  -10.4430 C   0  0  0  0  0  0  0  0  0  0  0  0
   30.2740    9.9790  -12.8530 N   0  0  0  0  0  0  0  0  0  0  0  0
   29.8220   11.2680  -12.6740 C   0  0  0  0  0  0  0  0  0  0  0  0
   28.8090   11.0530  -11.7150 C   0  0  0  0  0  0  0  0  0  0  0  0
   26.2410    7.6290   -8.3330 C   0  0  0  0  0  0  0  0  0  0  0  0
   25.4610    8.7310   -8.6400 N   0  0  0  0  0  0  0  0  0  0  0  0
   24.8320    9.0870   -7.5430 N   0  0  0  0  0  0  0  0  0  0  0  0
   25.0940    8.2940   -6.4340 C   0  0  0  0  0  0  0  0  0  0  0  0
   25.9870    7.3670   -6.9980 C   0  0  0  0  0  0  0  0  0  0  0  0
   23.9470   10.1550   -7.4390 C   0  0  0  0  0  0  0  0  0  0  0  0
   23.3260   10.4290   -6.2270 C   0  0  0  0  0  0  0  0  0  0  0  0
   23.5900    9.6350   -5.1170 C   0  0  0  0  0  0  0  0  0  0  0  0
   24.4730    8.5670   -5.2210 N   0  0  0  0  0  0  0  0  0  0  0  0
   22.9180    9.9330   -3.8000 C   0  0  1  0  0  0  0  0  0  0  0  0
   23.6610   11.0170   -8.6440 C   0  0  1  0  0  0  0  0  0  0  0  0
   28.8253    6.0634  -10.8405 H   0  0  0  0  0  0  0  0  0  0  0  0
   30.3137    7.2241  -12.4100 H   0  0  0  0  0  0  0  0  0  0  0  0
   27.0482    9.8715   -9.8743 H   0  0  0  0  0  0  0  0  0  0  0  0
   30.1569   12.2032  -13.1464 H   0  0  0  0  0  0  0  0  0  0  0  0
   28.2025   11.8834  -11.3243 H   0  0  0  0  0  0  0  0  0  0  0  0
   26.4330    6.5291   -6.4421 H   0  0  0  0  0  0  0  0  0  0  0  0
   22.6259   11.2736   -6.1457 H   0  0  0  0  0  0  0  0  0  0  0  0
   23.5825    9.6383   -2.9744 H   0  0  0  0  0  0  0  0  0  0  0  0
   22.7048   11.0100   -3.7326 H   0  0  0  0  0  0  0  0  0  0  0  0
   21.9766    9.3680   -3.7326 H   0  0  0  0  0  0  0  0  0  0  0  0
   23.3307   12.0125   -8.3126 H   0  0  0  0  0  0  0  0  0  0  0  0
   24.5744   11.1163   -9.2489 H   0  0  0  0  0  0  0  0  0  0  0  0
   22.8695   10.5506   -9.2489 H   0  0  0  0  0  0  0  0  0  0  0  0
  5  1  1  0
  5 11  1  0
 11 12  2  0
 11 15  1  0
 12 13  1  0
 13 16  1  0
 13 14  1  0
 14 15  2  0
 14 19  1  0
 16 21  1  0
 16 17  2  0
 17 18  1  0
 18 19  2  0
 18 20  1  0
  1  2  2  0
  1  7  1  0
  2  3  1  0
  3  4  1  0
  4  8  2  0
  4  6  1  0
  6 10  1  0
  6  7  2  0
  8  9  1  0
  9 10  2  0
  2 22  1  0
  3 23  1  0
  7 24  1  0
  9 25  1  0
 10 26  1  0
 15 27  1  0
 17 28  1  0
 20 29  1  1
 20 30  1  0
 20 31  1  0
 21 32  1  1
 21 33  1  0
 21 34  1  0
M  END
>  <Pose ID>  (405)
376

>  <Score>  (405)
-5.682882785797119

>  <smiles>  (405)
Cc1cc(C)n2nc(Oc3c[nH]c4nccc-4c3)cc2n1

$$$$

     RDKit          3D

 37 40  0  0  0  0  0  0  0  0999 V2000
   27.8440    7.9060  -10.2620 C   0  0  0  0  0  0  0  0  0  0  0  0
   28.7630    7.1550  -10.9830 C   0  0  0  0  0  0  0  0  0  0  0  0
   29.6150    7.7790  -11.8850 N   0  0  0  0  0  0  0  0  0  0  0  0
   29.5490    9.1560  -12.0670 C   0  0  0  0  0  0  0  0  0  0  0  0
   27.0280    7.1040   -9.3540 O   0  0  0  0  0  0  0  0  0  0  0  0
   28.6270    9.9080  -11.3440 C   0  0  0  0  0  0  0  0  0  0  0  0
   27.7770    9.2820  -10.4420 C   0  0  0  0  0  0  0  0  0  0  0  0
   30.2570    9.9770  -12.8680 N   0  0  0  0  0  0  0  0  0  0  0  0
   29.8070   11.2660  -12.6880 C   0  0  0  0  0  0  0  0  0  0  0  0
   28.7990   11.0530  -11.7230 C   0  0  0  0  0  0  0  0  0  0  0  0
   26.2490    7.6370   -8.3200 C   0  0  0  0  0  0  0  0  0  0  0  0
   25.4680    8.7400   -8.6240 N   0  0  0  0  0  0  0  0  0  0  0  0
   24.8460    9.0980   -7.5230 N   0  0  0  0  0  0  0  0  0  0  0  0
   25.1140    8.3060   -6.4150 C   0  0  0  0  0  0  0  0  0  0  0  0
   26.0030    7.3770   -6.9830 C   0  0  0  0  0  0  0  0  0  0  0  0
   23.9630   10.1660   -7.4150 C   0  0  0  0  0  0  0  0  0  0  0  0
   23.3490   10.4430   -6.2000 C   0  0  0  0  0  0  0  0  0  0  0  0
   23.6200    9.6500   -5.0910 C   0  0  0  0  0  0  0  0  0  0  0  0
   24.5010    8.5810   -5.1980 N   0  0  0  0  0  0  0  0  0  0  0  0
   22.9560    9.9500   -3.7700 C   0  0  1  0  0  0  0  0  0  0  0  0
   23.0970    8.8490   -2.7410 C   0  0  1  0  0  0  0  0  0  0  0  0
   23.6710   11.0260   -8.6200 C   0  0  1  0  0  0  0  0  0  0  0  0
   28.8162    6.0657  -10.8397 H   0  0  0  0  0  0  0  0  0  0  0  0
   30.2963    7.2214  -12.4196 H   0  0  0  0  0  0  0  0  0  0  0  0
   27.0497    9.8762   -9.8693 H   0  0  0  0  0  0  0  0  0  0  0  0
   30.1400   12.2004  -13.1633 H   0  0  0  0  0  0  0  0  0  0  0  0
   28.1952   11.8845  -11.3304 H   0  0  0  0  0  0  0  0  0  0  0  0
   26.4516    6.5396   -6.4286 H   0  0  0  0  0  0  0  0  0  0  0  0
   22.6499   11.2881   -6.1157 H   0  0  0  0  0  0  0  0  0  0  0  0
   23.4045   10.8663   -3.3586 H   0  0  0  0  0  0  0  0  0  0  0  0
   21.8803   10.0566   -3.9737 H   0  0  0  0  0  0  0  0  0  0  0  0
   23.0416    9.2816   -1.7312 H   0  0  0  0  0  0  0  0  0  0  0  0
   22.2851    8.1185   -2.8720 H   0  0  0  0  0  0  0  0  0  0  0  0
   24.0668    8.3467   -2.8720 H   0  0  0  0  0  0  0  0  0  0  0  0
   23.3338   12.0192   -8.2886 H   0  0  0  0  0  0  0  0  0  0  0  0
   24.5836   11.1316   -9.2249 H   0  0  0  0  0  0  0  0  0  0  0  0
   22.8827   10.5541   -9.2249 H   0  0  0  0  0  0  0  0  0  0  0  0
 11  5  1  0
 11 12  2  0
 11 15  1  0
 12 13  1  0
 13 16  1  0
 13 14  1  0
 14 15  2  0
 14 19  1  0
 16 22  1  0
 16 17  2  0
 17 18  1  0
 18 19  2  0
 18 20  1  0
 20 21  1  0
  5  1  1  0
  1  2  2  0
  1  7  1  0
  2  3  1  0
  3  4  1  0
  4  8  2  0
  4  6  1  0
  6 10  1  0
  6  7  2  0
  8  9  1  0
  9 10  2  0
  2 23  1  0
  3 24  1  0
  7 25  1  0
  9 26  1  0
 10 27  1  0
 15 28  1  0
 17 29  1  0
 20 30  1  1
 20 31  1  0
 21 32  1  1
 21 33  1  0
 21 34  1  0
 22 35  1  1
 22 36  1  0
 22 37  1  0
M  END
>  <Pose ID>  (406)
383

>  <Score>  (406)
-5.681524753570557

>  <smiles>  (406)
CCc1cc(C)n2nc(Oc3c[nH]c4nccc-4c3)cc2n1

$$$$

     RDKit          3D

 38 41  0  0  0  0  0  0  0  0999 V2000
   27.8180    7.8230  -10.2690 C   0  0  0  0  0  0  0  0  0  0  0  0
   28.7970    7.1130  -10.9520 C   0  0  0  0  0  0  0  0  0  0  0  0
   29.6530    7.7780  -11.8250 N   0  0  0  0  0  0  0  0  0  0  0  0
   29.5300    9.1490  -12.0100 C   0  0  0  0  0  0  0  0  0  0  0  0
   27.0070    6.9830   -9.3910 O   0  0  0  0  0  0  0  0  0  0  0  0
   28.5490    9.8580  -11.3260 C   0  0  0  0  0  0  0  0  0  0  0  0
   27.6940    9.1930  -10.4530 C   0  0  0  0  0  0  0  0  0  0  0  0
   30.2290   10.0010  -12.7870 N   0  0  0  0  0  0  0  0  0  0  0  0
   29.7140   11.2690  -12.6260 C   0  0  0  0  0  0  0  0  0  0  0  0
   28.6810   11.0100  -11.6980 C   0  0  0  0  0  0  0  0  0  0  0  0
   26.1660    7.4800   -8.3870 C   0  0  0  0  0  0  0  0  0  0  0  0
   25.3460    8.5450   -8.7210 N   0  0  0  0  0  0  0  0  0  0  0  0
   24.6680    8.8750   -7.6530 N   0  0  0  0  0  0  0  0  0  0  0  0
   24.9420    8.0970   -6.5350 C   0  0  0  0  0  0  0  0  0  0  0  0
   25.8800    7.2100   -7.0600 C   0  0  0  0  0  0  0  0  0  0  0  0
   23.7300    9.8980   -7.5730 C   0  0  0  0  0  0  0  0  0  0  0  0
   23.0670   10.1420   -6.3770 C   0  0  0  0  0  0  0  0  0  0  0  0
   23.3410    9.3640   -5.2590 C   0  0  0  0  0  0  0  0  0  0  0  0
   24.2790    8.3400   -5.3400 C   0  0  0  0  0  0  0  0  0  0  0  0
   22.6210    9.6290   -3.9590 C   0  0  1  0  0  0  0  0  0  0  0  0
   21.7360   10.8850   -4.0180 C   0  0  1  0  0  0  0  0  0  0  0  0
   24.5760    7.4920   -4.1270 C   0  0  1  0  0  0  0  0  0  0  0  0
   28.8956    6.0276  -10.8033 H   0  0  0  0  0  0  0  0  0  0  0  0
   30.3782    7.2530  -12.3342 H   0  0  0  0  0  0  0  0  0  0  0  0
   26.9196    9.7531   -9.9085 H   0  0  0  0  0  0  0  0  0  0  0  0
   30.0214   12.2176  -13.0903 H   0  0  0  0  0  0  0  0  0  0  0  0
   28.0257   11.8124  -11.3282 H   0  0  0  0  0  0  0  0  0  0  0  0
   26.3393    6.3912   -6.4868 H   0  0  0  0  0  0  0  0  0  0  0  0
   23.5127   10.5147   -8.4575 H   0  0  0  0  0  0  0  0  0  0  0  0
   22.3248   10.9515   -6.3150 H   0  0  0  0  0  0  0  0  0  0  0  0
   21.9863    8.7616   -3.7247 H   0  0  0  0  0  0  0  0  0  0  0  0
   23.3836    9.7952   -3.1839 H   0  0  0  0  0  0  0  0  0  0  0  0
   21.5020   11.2170   -2.9957 H   0  0  0  0  0  0  0  0  0  0  0  0
   22.2706   11.6856   -4.5502 H   0  0  0  0  0  0  0  0  0  0  0  0
   20.8022   10.6509   -4.5502 H   0  0  0  0  0  0  0  0  0  0  0  0
   24.3727    8.0725   -3.2151 H   0  0  0  0  0  0  0  0  0  0  0  0
   23.9382    6.5959   -4.1410 H   0  0  0  0  0  0  0  0  0  0  0  0
   25.6335    7.1896   -4.1410 H   0  0  0  0  0  0  0  0  0  0  0  0
 11  5  1  0
 11 12  2  0
 11 15  1  0
 12 13  1  0
 13 16  1  0
 13 14  1  0
 14 15  2  0
 14 19  1  0
 16 17  2  0
 17 18  1  0
 18 19  2  0
 18 20  1  0
 19 22  1  0
 20 21  1  0
  5  1  1  0
  1  2  2  0
  1  7  1  0
  2  3  1  0
  3  4  1  0
  4  8  2  0
  4  6  1  0
  6 10  1  0
  6  7  2  0
  8  9  1  0
  9 10  2  0
  2 23  1  0
  3 24  1  0
  7 25  1  0
  9 26  1  0
 10 27  1  0
 15 28  1  0
 16 29  1  0
 17 30  1  0
 20 31  1  1
 20 32  1  0
 21 33  1  1
 21 34  1  0
 21 35  1  0
 22 36  1  1
 22 37  1  0
 22 38  1  0
M  END
>  <Pose ID>  (407)
350

>  <Score>  (407)
-5.674097537994385

>  <smiles>  (407)
CCc1ccn2nc(Oc3c[nH]c4nccc-4c3)cc2c1C

$$$$

     RDKit          3D

 36 38  0  0  0  0  0  0  0  0999 V2000
   27.8180    7.8680  -10.2230 C   0  0  0  0  0  0  0  0  0  0  0  0
   28.7420    7.1340  -10.9570 C   0  0  0  0  0  0  0  0  0  0  0  0
   29.5900    7.7790  -11.8480 N   0  0  0  0  0  0  0  0  0  0  0  0
   29.5150    9.1580  -12.0060 C   0  0  0  0  0  0  0  0  0  0  0  0
   27.0100    7.0450   -9.3260 O   0  0  0  0  0  0  0  0  0  0  0  0
   28.5900    9.8910  -11.2710 C   0  0  0  0  0  0  0  0  0  0  0  0
   27.7420    9.2460  -10.3790 C   0  0  0  0  0  0  0  0  0  0  0  0
   30.2160    9.9960  -12.7930 N   0  0  0  0  0  0  0  0  0  0  0  0
   29.7610   11.2800  -12.5910 C   0  0  0  0  0  0  0  0  0  0  0  0
   28.7550   11.0440  -11.6300 C   0  0  0  0  0  0  0  0  0  0  0  0
   26.2270    7.5550   -8.2850 C   0  0  0  0  0  0  0  0  0  0  0  0
   25.4390    8.6590   -8.5670 N   0  0  0  0  0  0  0  0  0  0  0  0
   24.7780    9.0200   -7.4060 N   0  0  0  0  0  0  0  0  0  0  0  0
   25.1280    8.1630   -6.4370 C   0  0  0  0  0  0  0  0  0  0  0  0
   25.9830    7.2720   -6.9490 C   0  0  0  0  0  0  0  0  0  0  0  0
   23.8780   10.1450   -7.3890 C   0  0  1  0  0  0  0  0  0  0  0  0
   28.1280   12.2140  -11.2690 N   0  0  0  0  0  0  0  0  0  0  0  0
   28.7380   13.1650  -10.5560 C   0  0  0  0  0  0  0  0  0  0  0  0
   29.9260   13.1770  -10.2840 O   0  0  0  0  0  0  0  0  0  0  0  0
   27.8630   14.3740  -10.2670 C   0  0  1  0  0  0  0  0  0  0  0  0
   28.4270   15.2140   -9.0550 C   0  0  1  0  0  0  0  0  0  0  0  0
   28.8017    6.0427  -10.8324 H   0  0  0  0  0  0  0  0  0  0  0  0
   30.2749    7.2351  -12.3921 H   0  0  0  0  0  0  0  0  0  0  0  0
   27.0110    9.8263   -9.7968 H   0  0  0  0  0  0  0  0  0  0  0  0
   30.0895   12.2242  -13.0498 H   0  0  0  0  0  0  0  0  0  0  0  0
   24.7720    8.1884   -5.3965 H   0  0  0  0  0  0  0  0  0  0  0  0
   26.4288    6.4351   -6.3914 H   0  0  0  0  0  0  0  0  0  0  0  0
   23.6566   10.4217   -6.3477 H   0  0  0  0  0  0  0  0  0  0  0  0
   24.3465   10.9971   -7.9032 H   0  0  0  0  0  0  0  0  0  0  0  0
   22.9438    9.8750   -7.9032 H   0  0  0  0  0  0  0  0  0  0  0  0
   27.1510   12.3625  -11.5595 H   0  0  0  0  0  0  0  0  0  0  0  0
   27.8290   15.0137  -11.1612 H   0  0  0  0  0  0  0  0  0  0  0  0
   26.8557   14.0186  -10.0041 H   0  0  0  0  0  0  0  0  0  0  0  0
   28.1142   14.7481   -8.1089 H   0  0  0  0  0  0  0  0  0  0  0  0
   29.5255   15.2389   -9.1058 H   0  0  0  0  0  0  0  0  0  0  0  0
   28.0342   16.2402   -9.1058 H   0  0  0  0  0  0  0  0  0  0  0  0
  1  2  2  0
  1  7  1  0
  1  5  1  0
  2  3  1  0
  3  4  1  0
  4  8  2  0
  4  6  1  0
  6 10  1  0
  6  7  2  0
  8  9  1  0
  9 10  2  0
 10 17  1  0
 17 18  1  0
 18 19  2  0
 18 20  1  0
 20 21  1  0
  5 11  1  0
 11 12  2  0
 11 15  1  0
 12 13  1  0
 13 16  1  0
 13 14  1  0
 14 15  2  0
  2 22  1  0
  3 23  1  0
  7 24  1  0
  9 25  1  0
 14 26  1  0
 15 27  1  0
 16 28  1  1
 16 29  1  0
 16 30  1  0
 17 31  1  0
 20 32  1  6
 20 33  1  0
 21 34  1  1
 21 35  1  0
 21 36  1  0
M  END
>  <Pose ID>  (408)
541

>  <Score>  (408)
-5.6738810539245605

>  <smiles>  (408)
CCC(=O)Nc1cnc2[nH]cc(Oc3ccn(C)n3)cc1-2

$$$$

     RDKit          3D

 38 41  0  0  0  0  0  0  0  0999 V2000
   27.8510    7.8600  -10.2610 C   0  0  0  0  0  0  0  0  0  0  0  0
   28.7930    7.1290  -10.9760 C   0  0  0  0  0  0  0  0  0  0  0  0
   29.6330    7.7750  -11.8760 N   0  0  0  0  0  0  0  0  0  0  0  0
   29.5330    9.1490  -12.0590 C   0  0  0  0  0  0  0  0  0  0  0  0
   27.0530    7.0380   -9.3560 O   0  0  0  0  0  0  0  0  0  0  0  0
   28.5900    9.8790  -11.3430 C   0  0  0  0  0  0  0  0  0  0  0  0
   27.7510    9.2330  -10.4430 C   0  0  0  0  0  0  0  0  0  0  0  0
   30.2240    9.9860  -12.8590 N   0  0  0  0  0  0  0  0  0  0  0  0
   29.7420   11.2640  -12.6830 C   0  0  0  0  0  0  0  0  0  0  0  0
   28.7340   11.0280  -11.7210 C   0  0  0  0  0  0  0  0  0  0  0  0
   26.2550    7.5520   -8.3260 C   0  0  0  0  0  0  0  0  0  0  0  0
   25.4480    8.6350   -8.6330 N   0  0  0  0  0  0  0  0  0  0  0  0
   24.8130    8.9790   -7.5440 N   0  0  0  0  0  0  0  0  0  0  0  0
   25.1070    8.1960   -6.4350 C   0  0  0  0  0  0  0  0  0  0  0  0
   26.0080    7.2890   -6.9900 C   0  0  0  0  0  0  0  0  0  0  0  0
   23.8990   10.0220   -7.4350 C   0  0  0  0  0  0  0  0  0  0  0  0
   23.2810   10.2800   -6.2180 C   0  0  0  0  0  0  0  0  0  0  0  0
   23.5750    9.4960   -5.1080 C   0  0  0  0  0  0  0  0  0  0  0  0
   24.4880    8.4530   -5.2190 C   0  0  0  0  0  0  0  0  0  0  0  0
   22.9040    9.7770   -3.7860 C   0  0  1  0  0  0  0  0  0  0  0  0
   22.0450   11.0510   -3.8170 C   0  0  1  0  0  0  0  0  0  0  0  0
   21.3650   11.3520   -2.5420 C   0  0  1  0  0  0  0  0  0  0  0  0
   28.8735    6.0417  -10.8299 H   0  0  0  0  0  0  0  0  0  0  0  0
   30.3302    7.2346  -12.4078 H   0  0  0  0  0  0  0  0  0  0  0  0
   27.0069    9.8099   -9.8742 H   0  0  0  0  0  0  0  0  0  0  0  0
   30.0543   12.2055  -13.1584 H   0  0  0  0  0  0  0  0  0  0  0  0
   28.1082   11.8444  -11.3314 H   0  0  0  0  0  0  0  0  0  0  0  0
   26.4689    6.4610   -6.4314 H   0  0  0  0  0  0  0  0  0  0  0  0
   23.6656   10.6426   -8.3127 H   0  0  0  0  0  0  0  0  0  0  0  0
   22.5586   11.1051   -6.1324 H   0  0  0  0  0  0  0  0  0  0  0  0
   24.7202    7.8307   -4.3422 H   0  0  0  0  0  0  0  0  0  0  0  0
   22.2589    8.9235   -3.5301 H   0  0  0  0  0  0  0  0  0  0  0  0
   23.6951    9.9273   -3.0367 H   0  0  0  0  0  0  0  0  0  0  0  0
   22.6965   11.9005   -4.0697 H   0  0  0  0  0  0  0  0  0  0  0  0
   21.2559   10.8827   -4.5647 H   0  0  0  0  0  0  0  0  0  0  0  0
   22.0153   11.0642   -1.7028 H   0  0  0  0  0  0  0  0  0  0  0  0
   21.1500   12.4294   -2.4865 H   0  0  0  0  0  0  0  0  0  0  0  0
   20.4229   10.7868   -2.4865 H   0  0  0  0  0  0  0  0  0  0  0  0
 11  5  1  0
 11 12  2  0
 11 15  1  0
 12 13  1  0
 13 16  1  0
 13 14  1  0
 14 15  2  0
 14 19  1  0
 16 17  2  0
 17 18  1  0
 18 19  2  0
 18 20  1  0
  5  1  1  0
  1  2  2  0
  1  7  1  0
  2  3  1  0
  3  4  1  0
  4  8  2  0
  4  6  1  0
  6 10  1  0
  6  7  2  0
  8  9  1  0
  9 10  2  0
 20 21  1  0
 21 22  1  0
  2 23  1  0
  3 24  1  0
  7 25  1  0
  9 26  1  0
 10 27  1  0
 15 28  1  0
 16 29  1  0
 17 30  1  0
 19 31  1  0
 20 32  1  1
 20 33  1  0
 21 34  1  6
 21 35  1  0
 22 36  1  1
 22 37  1  0
 22 38  1  0
M  END
>  <Pose ID>  (409)
344

>  <Score>  (409)
-5.673149585723877

>  <smiles>  (409)
CCCc1ccn2nc(Oc3c[nH]c4nccc-4c3)cc2c1

$$$$

     RDKit          3D

 37 40  0  0  0  0  0  0  0  0999 V2000
   27.9050    7.9120  -10.3140 C   0  0  0  0  0  0  0  0  0  0  0  0
   28.8490    7.1580  -10.9990 C   0  0  0  0  0  0  0  0  0  0  0  0
   29.7260    7.7770  -11.8800 N   0  0  0  0  0  0  0  0  0  0  0  0
   29.6600    9.1510  -12.0770 C   0  0  0  0  0  0  0  0  0  0  0  0
   27.0660    7.1150   -9.4230 O   0  0  0  0  0  0  0  0  0  0  0  0
   28.7130    9.9070  -11.3930 C   0  0  0  0  0  0  0  0  0  0  0  0
   27.8390    9.2860  -10.5110 C   0  0  0  0  0  0  0  0  0  0  0  0
   30.3880    9.9670  -12.8660 N   0  0  0  0  0  0  0  0  0  0  0  0
   29.9290   11.2560  -12.7130 C   0  0  0  0  0  0  0  0  0  0  0  0
   28.8920   11.0490  -11.7770 C   0  0  0  0  0  0  0  0  0  0  0  0
   26.2520    7.6550   -8.4190 C   0  0  0  0  0  0  0  0  0  0  0  0
   25.4780    8.7510   -8.7560 N   0  0  0  0  0  0  0  0  0  0  0  0
   24.8100    9.1220   -7.6560 N   0  0  0  0  0  0  0  0  0  0  0  0
   25.0940    8.2870   -6.5820 C   0  0  0  0  0  0  0  0  0  0  0  0
   25.9670    7.4090   -7.0880 C   0  0  0  0  0  0  0  0  0  0  0  0
   23.9110   10.1700   -7.5000 C   0  0  0  0  0  0  0  0  0  0  0  0
   23.2970   10.3840   -6.2720 N   0  0  0  0  0  0  0  0  0  0  0  0
   23.5810    9.5490   -5.1980 C   0  0  0  0  0  0  0  0  0  0  0  0
   24.4790    8.5000   -5.3520 C   0  0  0  0  0  0  0  0  0  0  0  0
   22.9130    9.7800   -3.8650 C   0  0  1  0  0  0  0  0  0  0  0  0
   22.1280   11.1070   -3.8260 C   0  0  1  0  0  0  0  0  0  0  0  0
   23.6030   11.0780   -8.6650 C   0  0  1  0  0  0  0  0  0  0  0  0
   28.9020    6.0703  -10.8437 H   0  0  0  0  0  0  0  0  0  0  0  0
   30.4259    7.2173  -12.3878 H   0  0  0  0  0  0  0  0  0  0  0  0
   27.0924    9.8831   -9.9668 H   0  0  0  0  0  0  0  0  0  0  0  0
   30.2736   12.1868  -13.1872 H   0  0  0  0  0  0  0  0  0  0  0  0
   28.2736   11.8818  -11.4111 H   0  0  0  0  0  0  0  0  0  0  0  0
   26.4088    6.5837   -6.5103 H   0  0  0  0  0  0  0  0  0  0  0  0
   24.7036    7.8384   -4.5024 H   0  0  0  0  0  0  0  0  0  0  0  0
   22.2166    8.9511   -3.6699 H   0  0  0  0  0  0  0  0  0  0  0  0
   23.7003    9.8320   -3.0985 H   0  0  0  0  0  0  0  0  0  0  0  0
   21.9547   11.3999   -2.7800 H   0  0  0  0  0  0  0  0  0  0  0  0
   22.7077   11.8911   -4.3351 H   0  0  0  0  0  0  0  0  0  0  0  0
   21.1617   10.9765   -4.3351 H   0  0  0  0  0  0  0  0  0  0  0  0
   23.2709   12.0570   -8.2891 H   0  0  0  0  0  0  0  0  0  0  0  0
   24.5073   11.2080   -9.2776 H   0  0  0  0  0  0  0  0  0  0  0  0
   22.8062   10.6310   -9.2776 H   0  0  0  0  0  0  0  0  0  0  0  0
 11  5  1  0
 11 12  2  0
 11 15  1  0
 12 13  1  0
 13 16  1  0
 13 14  1  0
 14 15  2  0
 14 19  1  0
 16 22  1  0
 16 17  2  0
 17 18  1  0
 18 19  2  0
 18 20  1  0
 20 21  1  0
  5  1  1  0
  1  2  2  0
  1  7  1  0
  2  3  1  0
  3  4  1  0
  4  8  2  0
  4  6  1  0
  6 10  1  0
  6  7  2  0
  8  9  1  0
  9 10  2  0
  2 23  1  0
  3 24  1  0
  7 25  1  0
  9 26  1  0
 10 27  1  0
 15 28  1  0
 19 29  1  0
 20 30  1  1
 20 31  1  0
 21 32  1  1
 21 33  1  0
 21 34  1  0
 22 35  1  1
 22 36  1  0
 22 37  1  0
M  END
>  <Pose ID>  (410)
301

>  <Score>  (410)
-5.666069507598877

>  <smiles>  (410)
CCc1cc2cc(Oc3c[nH]c4nccc-4c3)nn2c(C)n1

$$$$

     RDKit          3D

 38 41  0  0  0  0  0  0  0  0999 V2000
   27.7090    7.7890  -10.2800 C   0  0  0  0  0  0  0  0  0  0  0  0
   28.4600    7.0760  -11.2060 C   0  0  0  0  0  0  0  0  0  0  0  0
   29.2810    7.7520  -12.1030 N   0  0  0  0  0  0  0  0  0  0  0  0
   29.3520    9.1390  -12.0710 C   0  0  0  0  0  0  0  0  0  0  0  0
   26.9070    6.9360   -9.4090 O   0  0  0  0  0  0  0  0  0  0  0  0
   28.6000    9.8540  -11.1440 C   0  0  0  0  0  0  0  0  0  0  0  0
   27.7800    9.1770  -10.2470 C   0  0  0  0  0  0  0  0  0  0  0  0
   30.0620   10.0050  -12.8220 N   0  0  0  0  0  0  0  0  0  0  0  0
   29.7840   11.2870  -12.4030 C   0  0  0  0  0  0  0  0  0  0  0  0
   28.8590   11.0210  -11.3670 C   0  0  0  0  0  0  0  0  0  0  0  0
   26.3020    7.3700   -8.2250 C   0  0  0  0  0  0  0  0  0  0  0  0
   25.6250    8.5780   -8.2680 N   0  0  0  0  0  0  0  0  0  0  0  0
   25.1320    8.8350   -7.0010 N   0  0  0  0  0  0  0  0  0  0  0  0
   25.4780    7.8200   -6.1980 C   0  0  0  0  0  0  0  0  0  0  0  0
   26.1650    6.9290   -6.9190 C   0  0  0  0  0  0  0  0  0  0  0  0
   24.4500    9.9640   -6.6780 C   0  0  0  0  0  0  0  0  0  0  0  0
   23.1890    9.8880   -6.0950 C   0  0  0  0  0  0  0  0  0  0  0  0
   25.0430   11.2030   -6.8900 C   0  0  0  0  0  0  0  0  0  0  0  0
   24.3780   12.3650   -6.5180 C   0  0  0  0  0  0  0  0  0  0  0  0
   23.1190   12.2880   -5.9360 N   0  0  0  0  0  0  0  0  0  0  0  0
   22.5250   11.0510   -5.7240 C   0  0  0  0  0  0  0  0  0  0  0  0
   25.0230   13.7090   -6.7470 C   0  0  1  0  0  0  0  0  0  0  0  0
   22.5430    8.5450   -5.8650 C   0  0  1  0  0  0  0  0  0  0  0  0
   28.4056    5.9776  -11.2300 H   0  0  0  0  0  0  0  0  0  0  0  0
   29.8364    7.2239  -12.7911 H   0  0  0  0  0  0  0  0  0  0  0  0
   27.1874    9.7403   -9.5111 H   0  0  0  0  0  0  0  0  0  0  0  0
   30.1724   12.2481  -12.7709 H   0  0  0  0  0  0  0  0  0  0  0  0
   28.3946   11.8334  -10.7887 H   0  0  0  0  0  0  0  0  0  0  0  0
   25.2376    7.7346   -5.1280 H   0  0  0  0  0  0  0  0  0  0  0  0
   26.5647    5.9806   -6.5308 H   0  0  0  0  0  0  0  0  0  0  0  0
   26.0392   11.2638   -7.3525 H   0  0  0  0  0  0  0  0  0  0  0  0
   21.5284   10.9916   -5.2622 H   0  0  0  0  0  0  0  0  0  0  0  0
   25.2479   14.1777   -5.7776 H   0  0  0  0  0  0  0  0  0  0  0  0
   25.9555   13.5762   -7.3152 H   0  0  0  0  0  0  0  0  0  0  0  0
   24.3360   14.3534   -7.3152 H   0  0  0  0  0  0  0  0  0  0  0  0
   22.4545    8.3610   -4.7841 H   0  0  0  0  0  0  0  0  0  0  0  0
   21.5423    8.5365   -6.3216 H   0  0  0  0  0  0  0  0  0  0  0  0
   23.1610    7.7578   -6.3216 H   0  0  0  0  0  0  0  0  0  0  0  0
 11  5  1  0
 11 12  2  0
 11 15  1  0
 12 13  1  0
 13 16  1  0
 13 14  1  0
 14 15  2  0
 16 18  1  0
 16 17  2  0
 17 23  1  0
 17 21  1  0
 18 19  2  0
 19 22  1  0
 19 20  1  0
 20 21  2  0
  5  1  1  0
  1  2  2  0
  1  7  1  0
  2  3  1  0
  3  4  1  0
  4  8  2  0
  4  6  1  0
  6 10  1  0
  6  7  2  0
  8  9  1  0
  9 10  2  0
  2 24  1  0
  3 25  1  0
  7 26  1  0
  9 27  1  0
 10 28  1  0
 14 29  1  0
 15 30  1  0
 18 31  1  0
 21 32  1  0
 22 33  1  1
 22 34  1  0
 22 35  1  0
 23 36  1  1
 23 37  1  0
 23 38  1  0
M  END
>  <Pose ID>  (411)
261

>  <Score>  (411)
-5.653054714202881

>  <smiles>  (411)
Cc1cc(-n2ccc(Oc3c[nH]c4nccc-4c3)n2)c(C)cn1

$$$$

     RDKit          3D

 25 26  0  0  0  0  0  0  0  0999 V2000
   28.1600    7.6790  -10.3060 C   0  0  0  0  0  0  0  0  0  0  0  0
   27.4700    7.1630   -9.2160 N   0  0  0  0  0  0  0  0  0  0  0  0
   26.3870    7.8520   -8.6890 C   0  0  0  0  0  0  0  0  0  0  0  0
   25.9910    9.0620   -9.2530 C   0  0  0  0  0  0  0  0  0  0  0  0
   26.6800    9.5770  -10.3440 N   0  0  0  0  0  0  0  0  0  0  0  0
   27.7600    8.8880  -10.8750 C   0  0  0  0  0  0  0  0  0  0  0  0
   25.0180    9.6800   -8.7810 O   0  0  0  0  0  0  0  0  0  0  0  0
   25.5590    7.5550   -7.6340 N   0  0  0  0  0  0  0  0  0  0  0  0
   25.2890    8.4600   -6.4110 C   0  0  0  0  0  0  0  0  0  0  0  0
   25.9560    9.6790   -6.4200 C   0  0  0  0  0  0  0  0  0  0  0  0
   25.7480   10.5920   -5.3940 N   0  0  0  0  0  0  0  0  0  0  0  0
   24.8730   10.2880   -4.3590 C   0  0  0  0  0  0  0  0  0  0  0  0
   24.2060    9.0690   -4.3480 C   0  0  0  0  0  0  0  0  0  0  0  0
   24.4140    8.1550   -5.3750 C   0  0  0  0  0  0  0  0  0  0  0  0
   23.6900    6.8310   -5.3640 C   0  0  1  0  0  0  0  0  0  0  0  0
   29.0213    7.1343  -10.7200 H   0  0  0  0  0  0  0  0  0  0  0  0
   26.3878   10.4730  -10.7596 H   0  0  0  0  0  0  0  0  0  0  0  0
   28.3000    9.2941  -11.7430 H   0  0  0  0  0  0  0  0  0  0  0  0
   25.0741    6.6467   -7.6605 H   0  0  0  0  0  0  0  0  0  0  0  0
   26.6487    9.9209   -7.2396 H   0  0  0  0  0  0  0  0  0  0  0  0
   24.7080   11.0124   -3.5478 H   0  0  0  0  0  0  0  0  0  0  0  0
   23.5142    8.8274   -3.5277 H   0  0  0  0  0  0  0  0  0  0  0  0
   23.5177    6.5159   -4.3243 H   0  0  0  0  0  0  0  0  0  0  0  0
   22.7242    6.9369   -5.8799 H   0  0  0  0  0  0  0  0  0  0  0  0
   24.3003    6.0751   -5.8799 H   0  0  0  0  0  0  0  0  0  0  0  0
  1  6  2  0
  1  2  1  0
  2  3  2  0
  3  4  1  0
  3  8  1  0
  4  5  1  0
  4  7  2  0
  5  6  1  0
  8  9  1  0
  9 10  2  0
  9 14  1  0
 10 11  1  0
 11 12  2  0
 12 13  1  0
 13 14  2  0
 14 15  1  0
  1 16  1  0
  5 17  1  0
  6 18  1  0
  8 19  1  0
 10 20  1  0
 12 21  1  0
 13 22  1  0
 15 23  1  1
 15 24  1  0
 15 25  1  0
M  END
>  <Pose ID>  (412)
41

>  <Score>  (412)
-5.652287483215332

>  <smiles>  (412)
Cc1ccncc1Nc1ncc[nH]c1=O

$$$$

     RDKit          3D

 36 39  0  0  0  0  0  0  0  0999 V2000
   27.2750    7.8620  -10.1700 C   0  0  0  0  0  0  0  0  0  0  0  0
   28.4010    7.1340  -10.5130 C   0  0  0  0  0  0  0  0  0  0  0  0
   29.3740    7.6980  -11.3260 N   0  0  0  0  0  0  0  0  0  0  0  0
   26.4890    7.1170   -9.3750 N   0  0  0  0  0  0  0  0  0  0  0  0
   29.2200    8.9990  -11.7930 C   0  0  0  0  0  0  0  0  0  0  0  0
   28.0900    9.7300  -11.4480 C   0  0  0  0  0  0  0  0  0  0  0  0
   27.1170    9.1650  -10.6360 C   0  0  0  0  0  0  0  0  0  0  0  0
   30.0110    9.7530  -12.5780 N   0  0  0  0  0  0  0  0  0  0  0  0
   29.4140   10.9790  -12.7590 C   0  0  0  0  0  0  0  0  0  0  0  0
   28.2350   10.8040  -12.0070 C   0  0  0  0  0  0  0  0  0  0  0  0
   25.8900    7.6130   -8.1800 C   0  0  0  0  0  0  0  0  0  0  0  0
   25.2690    6.7080   -7.3260 N   0  0  0  0  0  0  0  0  0  0  0  0
   24.5730    7.1650   -6.2130 C   0  0  0  0  0  0  0  0  0  0  0  0
   24.4960    8.5290   -5.9550 C   0  0  0  0  0  0  0  0  0  0  0  0
   25.1160    9.4350   -6.8090 C   0  0  0  0  0  0  0  0  0  0  0  0
   25.8350    8.9730   -7.9050 C   0  0  0  0  0  0  0  0  0  0  0  0
   24.0160    6.3540   -5.4510 O   0  0  0  0  0  0  0  0  0  0  0  0
   25.1630   10.8400   -6.7850 C   0  0  0  0  0  0  0  0  0  0  0  0
   24.5770   11.6730   -7.6800 O   0  0  0  0  0  0  0  0  0  0  0  0
   24.8480   12.9560   -7.3140 N   0  0  0  0  0  0  0  0  0  0  0  0
   25.5900   12.9160   -6.1870 C   0  0  0  0  0  0  0  0  0  0  0  0
   25.8280   11.5980   -5.8690 C   0  0  0  0  0  0  0  0  0  0  0  0
   26.0760   14.1130   -5.4070 C   0  0  1  0  0  0  0  0  0  0  0  0
   28.5249    6.1064  -10.1405 H   0  0  0  0  0  0  0  0  0  0  0  0
   30.2096    7.1535  -11.5834 H   0  0  0  0  0  0  0  0  0  0  0  0
   26.3101    6.1385   -9.6422 H   0  0  0  0  0  0  0  0  0  0  0  0
   26.2234    9.7445  -10.3611 H   0  0  0  0  0  0  0  0  0  0  0  0
   29.7603   11.8524  -13.3311 H   0  0  0  0  0  0  0  0  0  0  0  0
   27.4799   11.6000  -11.9279 H   0  0  0  0  0  0  0  0  0  0  0  0
   25.3249    5.6977   -7.5185 H   0  0  0  0  0  0  0  0  0  0  0  0
   23.9445    8.8918   -5.0751 H   0  0  0  0  0  0  0  0  0  0  0  0
   26.3617    9.6863   -8.5561 H   0  0  0  0  0  0  0  0  0  0  0  0
   26.4395   11.2270   -5.0333 H   0  0  0  0  0  0  0  0  0  0  0  0
   25.9924   13.9072   -4.3297 H   0  0  0  0  0  0  0  0  0  0  0  0
   27.1271   14.3143   -5.6614 H   0  0  0  0  0  0  0  0  0  0  0  0
   25.4627   14.9900   -5.6614 H   0  0  0  0  0  0  0  0  0  0  0  0
 11  4  1  0
 11 16  2  0
 11 12  1  0
 12 13  1  0
 13 14  1  0
 13 17  2  0
 14 15  2  0
 15 16  1  0
 15 18  1  0
 18 19  1  0
 18 22  2  0
 19 20  1  0
 20 21  2  0
 21 22  1  0
 21 23  1  0
  4  1  1  0
  1  7  1  0
  1  2  2  0
  2  3  1  0
  3  5  1  0
  5  8  2  0
  5  6  1  0
  6 10  1  0
  6  7  2  0
  8  9  1  0
  9 10  2  0
  2 24  1  0
  3 25  1  0
  4 26  1  0
  7 27  1  0
  9 28  1  0
 10 29  1  0
 12 30  1  0
 14 31  1  0
 16 32  1  0
 22 33  1  0
 23 34  1  1
 23 35  1  0
 23 36  1  0
M  END
>  <Pose ID>  (413)
134

>  <Score>  (413)
-5.650648593902588

>  <smiles>  (413)
Cc1cc(-c2cc(Nc3c[nH]c4nccc-4c3)[nH]c(=O)c2)on1

$$$$

     RDKit          3D

 38 41  0  0  0  0  0  0  0  0999 V2000
   27.7000    7.8210  -10.2480 C   0  0  0  0  0  0  0  0  0  0  0  0
   28.5090    7.0990  -11.1170 C   0  0  0  0  0  0  0  0  0  0  0  0
   29.3370    7.7640  -12.0130 N   0  0  0  0  0  0  0  0  0  0  0  0
   29.3570    9.1540  -12.0430 C   0  0  0  0  0  0  0  0  0  0  0  0
   26.9000    6.9770   -9.3670 O   0  0  0  0  0  0  0  0  0  0  0  0
   28.5450    9.8780  -11.1730 C   0  0  0  0  0  0  0  0  0  0  0  0
   27.7210    9.2120  -10.2750 C   0  0  0  0  0  0  0  0  0  0  0  0
   30.0600   10.0140  -12.8060 N   0  0  0  0  0  0  0  0  0  0  0  0
   29.7180   11.2990  -12.4550 C   0  0  0  0  0  0  0  0  0  0  0  0
   28.7700   11.0470  -11.4410 C   0  0  0  0  0  0  0  0  0  0  0  0
   26.2390    7.4390   -8.2240 C   0  0  0  0  0  0  0  0  0  0  0  0
   25.5180    8.6170   -8.3460 N   0  0  0  0  0  0  0  0  0  0  0  0
   24.9730    8.9110   -7.1080 N   0  0  0  0  0  0  0  0  0  0  0  0
   25.3280    7.9460   -6.2490 C   0  0  0  0  0  0  0  0  0  0  0  0
   26.0720    7.0510   -6.9070 C   0  0  0  0  0  0  0  0  0  0  0  0
   24.2120   10.0080   -6.8500 C   0  0  0  0  0  0  0  0  0  0  0  0
   24.7320   11.2630   -7.1410 C   0  0  0  0  0  0  0  0  0  0  0  0
   23.1070    9.8900   -6.0150 C   0  0  0  0  0  0  0  0  0  0  0  0
   22.5200   11.0270   -5.4730 N   0  0  0  0  0  0  0  0  0  0  0  0
   23.0400   12.2820   -5.7640 C   0  0  0  0  0  0  0  0  0  0  0  0
   24.1370   12.4130   -6.6140 C   0  0  0  0  0  0  0  0  0  0  0  0
   22.4130   13.5120   -5.1560 C   0  0  1  0  0  0  0  0  0  0  0  0
   28.0660   12.1710  -10.7220 C   0  0  1  0  0  0  0  0  0  0  0  0
   28.4939    5.9993  -11.0955 H   0  0  0  0  0  0  0  0  0  0  0  0
   29.9365    7.2268  -12.6556 H   0  0  0  0  0  0  0  0  0  0  0  0
   27.0844    9.7847   -9.5845 H   0  0  0  0  0  0  0  0  0  0  0  0
   30.0824   12.2571  -12.8540 H   0  0  0  0  0  0  0  0  0  0  0  0
   25.0542    7.8983   -5.1847 H   0  0  0  0  0  0  0  0  0  0  0  0
   26.4917    6.1359   -6.4638 H   0  0  0  0  0  0  0  0  0  0  0  0
   25.6162   11.3522   -7.7892 H   0  0  0  0  0  0  0  0  0  0  0  0
   22.6969    8.8960   -5.7831 H   0  0  0  0  0  0  0  0  0  0  0  0
   24.5296   13.4089   -6.8669 H   0  0  0  0  0  0  0  0  0  0  0  0
   22.4504   13.4386   -4.0591 H   0  0  0  0  0  0  0  0  0  0  0  0
   22.9659   14.4051   -5.4828 H   0  0  0  0  0  0  0  0  0  0  0  0
   21.3655   13.5893   -5.4828 H   0  0  0  0  0  0  0  0  0  0  0  0
   28.1573   12.0253   -9.6355 H   0  0  0  0  0  0  0  0  0  0  0  0
   28.5249   13.1304  -11.0031 H   0  0  0  0  0  0  0  0  0  0  0  0
   27.0025   12.1769  -11.0031 H   0  0  0  0  0  0  0  0  0  0  0  0
  5  1  1  0
  5 11  1  0
  1  2  2  0
  1  7  1  0
  2  3  1  0
  3  4  1  0
  4  8  2  0
  4  6  1  0
  6 10  1  0
  6  7  2  0
  8  9  1  0
  9 10  2  0
 10 23  1  0
 11 12  2  0
 11 15  1  0
 12 13  1  0
 13 16  1  0
 13 14  1  0
 14 15  2  0
 16 17  2  0
 16 18  1  0
 17 21  1  0
 18 19  2  0
 19 20  1  0
 20 21  2  0
 20 22  1  0
  2 24  1  0
  3 25  1  0
  7 26  1  0
  9 27  1  0
 14 28  1  0
 15 29  1  0
 17 30  1  0
 18 31  1  0
 21 32  1  0
 22 33  1  1
 22 34  1  0
 22 35  1  0
 23 36  1  1
 23 37  1  0
 23 38  1  0
M  END
>  <Pose ID>  (414)
470

>  <Score>  (414)
-5.649211406707764

>  <smiles>  (414)
Cc1ccc(-n2ccc(Oc3c[nH]c4ncc(C)c-4c3)n2)cn1

$$$$

     RDKit          3D

 22 24  0  0  0  0  0  0  0  0999 V2000
   28.0610    7.0670  -10.3790 C   0  0  0  0  0  0  0  0  0  0  0  0
   26.9670    6.7990   -9.5630 N   0  0  0  0  0  0  0  0  0  0  0  0
   26.1370    7.8340   -9.1560 C   0  0  0  0  0  0  0  0  0  0  0  0
   26.3970    9.1380   -9.5630 C   0  0  0  0  0  0  0  0  0  0  0  0
   27.4910    9.4050  -10.3790 N   0  0  0  0  0  0  0  0  0  0  0  0
   28.3220    8.3700  -10.7860 C   0  0  0  0  0  0  0  0  0  0  0  0
   25.6760   10.2870   -9.2580 C   0  0  0  0  0  0  0  0  0  0  0  0
   24.5160   10.2390   -8.4930 C   0  0  0  0  0  0  0  0  0  0  0  0
   26.1240   11.5020   -9.7620 C   0  0  0  0  0  0  0  0  0  0  0  0
   23.8050   11.4030   -8.2340 N   0  0  0  0  0  0  0  0  0  0  0  0
   24.2530   12.6190   -8.7400 C   0  0  0  0  0  0  0  0  0  0  0  0
   27.3520   10.9960  -10.5530 N   0  0  0  0  0  0  0  0  0  0  0  0
   25.4130   12.6680   -9.5050 C   0  0  0  0  0  0  0  0  0  0  0  0
   23.4800   13.8840   -8.4600 C   0  0  1  0  0  0  0  0  0  0  0  0
   28.7198    6.2475  -10.7023 H   0  0  0  0  0  0  0  0  0  0  0  0
   25.2719    7.6225   -8.5103 H   0  0  0  0  0  0  0  0  0  0  0  0
   29.1876    8.5814  -11.4310 H   0  0  0  0  0  0  0  0  0  0  0  0
   24.1612    9.2778   -8.0926 H   0  0  0  0  0  0  0  0  0  0  0  0
   25.7676   13.6288   -9.9064 H   0  0  0  0  0  0  0  0  0  0  0  0
   23.3925   14.0272   -7.3729 H   0  0  0  0  0  0  0  0  0  0  0  0
   24.0083   14.7419   -8.9015 H   0  0  0  0  0  0  0  0  0  0  0  0
   22.4756   13.8052   -8.9015 H   0  0  0  0  0  0  0  0  0  0  0  0
  1  6  2  0
  1  2  1  0
  2  3  2  0
  3  4  1  0
  4  5  1  0
  4  7  2  0
  5  6  1  0
  5 12  1  0
  7  9  1  0
  7  8  1  0
  8 10  2  0
  9 12  2  0
  9 13  1  0
 10 11  1  0
 11 13  2  0
 11 14  1  0
  1 15  1  0
  3 16  1  0
  6 17  1  0
  8 18  1  0
 13 19  1  0
 14 20  1  1
 14 21  1  0
 14 22  1  0
M  END
>  <Pose ID>  (415)
52

>  <Score>  (415)
-5.6489973068237305

>  <smiles>  (415)
Cc1cc2nn3ccncc3c2cn1

$$$$

     RDKit          3D

 22 24  0  0  0  0  0  0  0  0999 V2000
   27.9840    7.2710  -10.3410 C   0  0  0  0  0  0  0  0  0  0  0  0
   26.9930    6.8630   -9.4540 N   0  0  0  0  0  0  0  0  0  0  0  0
   26.1040    7.7940   -8.9330 C   0  0  0  0  0  0  0  0  0  0  0  0
   26.2030    9.1320   -9.2980 C   0  0  0  0  0  0  0  0  0  0  0  0
   27.1920    9.5380  -10.1850 N   0  0  0  0  0  0  0  0  0  0  0  0
   28.0820    8.6090  -10.7060 C   0  0  0  0  0  0  0  0  0  0  0  0
   25.4020   10.1900   -8.8810 C   0  0  0  0  0  0  0  0  0  0  0  0
   24.3210    9.9960   -8.0300 C   0  0  0  0  0  0  0  0  0  0  0  0
   25.6870   11.4620   -9.3630 C   0  0  0  0  0  0  0  0  0  0  0  0
   23.5250   11.0720   -7.6590 N   0  0  0  0  0  0  0  0  0  0  0  0
   23.8100   12.3450   -8.1420 C   0  0  0  0  0  0  0  0  0  0  0  0
   26.8860   11.1130  -10.2720 N   0  0  0  0  0  0  0  0  0  0  0  0
   24.8900   12.5400   -8.9940 C   0  0  0  0  0  0  0  0  0  0  0  0
   25.1990   13.9210   -9.5180 C   0  0  1  0  0  0  0  0  0  0  0  0
   28.6899    6.5351  -10.7535 H   0  0  0  0  0  0  0  0  0  0  0  0
   25.3207    7.4726   -8.2308 H   0  0  0  0  0  0  0  0  0  0  0  0
   28.8651    8.9315  -11.4079 H   0  0  0  0  0  0  0  0  0  0  0  0
   24.0953    8.9889   -7.6496 H   0  0  0  0  0  0  0  0  0  0  0  0
   23.1799   13.1978   -7.8492 H   0  0  0  0  0  0  0  0  0  0  0  0
   25.3527   14.6080   -8.6728 H   0  0  0  0  0  0  0  0  0  0  0  0
   26.1112   13.8847  -10.1316 H   0  0  0  0  0  0  0  0  0  0  0  0
   24.3583   14.2770  -10.1316 H   0  0  0  0  0  0  0  0  0  0  0  0
  1  6  2  0
  1  2  1  0
  2  3  2  0
  3  4  1  0
  4  5  1  0
  4  7  2  0
  5  6  1  0
  5 12  1  0
  7  9  1  0
  7  8  1  0
  8 10  2  0
  9 12  2  0
  9 13  1  0
 10 11  1  0
 11 13  2  0
 13 14  1  0
  1 15  1  0
  3 16  1  0
  6 17  1  0
  8 18  1  0
 11 19  1  0
 14 20  1  1
 14 21  1  0
 14 22  1  0
M  END
>  <Pose ID>  (416)
51

>  <Score>  (416)
-5.64600944519043

>  <smiles>  (416)
Cc1cncc2c1nn1ccncc21

$$$$

     RDKit          3D

 37 40  0  0  0  0  0  0  0  0999 V2000
   27.7430    7.7380  -10.2000 C   0  0  0  0  0  0  0  0  0  0  0  0
   28.6030    7.0620  -11.0560 C   0  0  0  0  0  0  0  0  0  0  0  0
   29.3630    7.7710  -11.9790 N   0  0  0  0  0  0  0  0  0  0  0  0
   29.2630    9.1560  -12.0460 C   0  0  0  0  0  0  0  0  0  0  0  0
   27.0230    6.8540   -9.2880 O   0  0  0  0  0  0  0  0  0  0  0  0
   28.4000    9.8320  -11.1890 C   0  0  0  0  0  0  0  0  0  0  0  0
   27.6420    9.1230  -10.2660 C   0  0  0  0  0  0  0  0  0  0  0  0
   29.8850   10.0480  -12.8410 N   0  0  0  0  0  0  0  0  0  0  0  0
   29.4360   11.3110  -12.5230 C   0  0  0  0  0  0  0  0  0  0  0  0
   28.5220   11.0060  -11.4920 C   0  0  0  0  0  0  0  0  0  0  0  0
   26.3320    7.2910   -8.1510 C   0  0  0  0  0  0  0  0  0  0  0  0
   25.5130    8.3980   -8.2980 N   0  0  0  0  0  0  0  0  0  0  0  0
   24.9870    8.6590   -7.1220 N   0  0  0  0  0  0  0  0  0  0  0  0
   25.3650    7.7910   -6.1070 C   0  0  0  0  0  0  0  0  0  0  0  0
   26.2100    6.9260   -6.8210 C   0  0  0  0  0  0  0  0  0  0  0  0
   24.1040    9.6990   -6.8550 C   0  0  0  0  0  0  0  0  0  0  0  0
   23.5980    9.8700   -5.5720 C   0  0  0  0  0  0  0  0  0  0  0  0
   23.9780    9.0010   -4.5560 C   0  0  0  0  0  0  0  0  0  0  0  0
   24.8590    7.9610   -4.8230 N   0  0  0  0  0  0  0  0  0  0  0  0
   23.4310    9.1870   -3.1620 C   0  0  1  0  0  0  0  0  0  0  0  0
   23.6790    8.0140   -2.2380 C   0  0  1  0  0  0  0  0  0  0  0  0
   22.6390   10.9990   -5.2830 C   0  0  1  0  0  0  0  0  0  0  0  0
   28.6826    5.9661  -11.0035 H   0  0  0  0  0  0  0  0  0  0  0  0
   30.0008    7.2698  -12.6138 H   0  0  0  0  0  0  0  0  0  0  0  0
   26.9615    9.6576   -9.5869 H   0  0  0  0  0  0  0  0  0  0  0  0
   29.7127   12.2851  -12.9527 H   0  0  0  0  0  0  0  0  0  0  0  0
   27.9452   11.7931  -10.9843 H   0  0  0  0  0  0  0  0  0  0  0  0
   26.7170    6.0578   -6.3747 H   0  0  0  0  0  0  0  0  0  0  0  0
   23.8056   10.3870   -7.6598 H   0  0  0  0  0  0  0  0  0  0  0  0
   23.9022   10.0784   -2.7223 H   0  0  0  0  0  0  0  0  0  0  0  0
   22.3400    9.2873   -3.2606 H   0  0  0  0  0  0  0  0  0  0  0  0
   23.6081    8.3492   -1.1927 H   0  0  0  0  0  0  0  0  0  0  0  0
   22.9258    7.2344   -2.4249 H   0  0  0  0  0  0  0  0  0  0  0  0
   24.6833    7.6059   -2.4249 H   0  0  0  0  0  0  0  0  0  0  0  0
   22.5346   11.1219   -4.1949 H   0  0  0  0  0  0  0  0  0  0  0  0
   23.0263   11.9304   -5.7217 H   0  0  0  0  0  0  0  0  0  0  0  0
   21.6572   10.7675   -5.7217 H   0  0  0  0  0  0  0  0  0  0  0  0
 11  5  1  0
 11 12  2  0
 11 15  1  0
 12 13  1  0
 13 16  1  0
 13 14  1  0
 14 15  2  0
 14 19  1  0
 16 17  2  0
 17 22  1  0
 17 18  1  0
 18 19  2  0
 18 20  1  0
 20 21  1  0
  5  1  1  0
  1  2  2  0
  1  7  1  0
  2  3  1  0
  3  4  1  0
  4  8  2  0
  4  6  1  0
  6 10  1  0
  6  7  2  0
  8  9  1  0
  9 10  2  0
  2 23  1  0
  3 24  1  0
  7 25  1  0
  9 26  1  0
 10 27  1  0
 15 28  1  0
 16 29  1  0
 20 30  1  1
 20 31  1  0
 21 32  1  1
 21 33  1  0
 21 34  1  0
 22 35  1  1
 22 36  1  0
 22 37  1  0
M  END
>  <Pose ID>  (417)
382

>  <Score>  (417)
-5.639265537261963

>  <smiles>  (417)
CCc1nc2cc(Oc3c[nH]c4nccc-4c3)nn2cc1C

$$$$

     RDKit          3D

 31 34  0  0  0  0  0  0  0  0999 V2000
   27.8410    7.8990  -10.2680 C   0  0  0  0  0  0  0  0  0  0  0  0
   28.7650    7.1500  -10.9860 C   0  0  0  0  0  0  0  0  0  0  0  0
   29.6240    7.7790  -11.8790 N   0  0  0  0  0  0  0  0  0  0  0  0
   29.5600    9.1560  -12.0550 C   0  0  0  0  0  0  0  0  0  0  0  0
   27.0190    7.0940   -9.3690 O   0  0  0  0  0  0  0  0  0  0  0  0
   28.6320    9.9060  -11.3370 C   0  0  0  0  0  0  0  0  0  0  0  0
   27.7760    9.2760  -10.4430 C   0  0  0  0  0  0  0  0  0  0  0  0
   30.2740    9.9800  -12.8480 N   0  0  0  0  0  0  0  0  0  0  0  0
   29.8240   11.2680  -12.6670 C   0  0  0  0  0  0  0  0  0  0  0  0
   28.8080   11.0520  -11.7100 C   0  0  0  0  0  0  0  0  0  0  0  0
   26.2320    7.6220   -8.3390 C   0  0  0  0  0  0  0  0  0  0  0  0
   25.4540    8.7270   -8.6440 N   0  0  0  0  0  0  0  0  0  0  0  0
   24.8230    9.0810   -7.5470 N   0  0  0  0  0  0  0  0  0  0  0  0
   25.0830    8.2850   -6.4390 C   0  0  0  0  0  0  0  0  0  0  0  0
   25.9750    7.3590   -7.0050 C   0  0  0  0  0  0  0  0  0  0  0  0
   23.9390   10.1500   -7.4420 C   0  0  0  0  0  0  0  0  0  0  0  0
   23.3180   10.4220   -6.2300 C   0  0  0  0  0  0  0  0  0  0  0  0
   23.5790    9.6250   -5.1210 C   0  0  0  0  0  0  0  0  0  0  0  0
   24.4610    8.5560   -5.2260 N   0  0  0  0  0  0  0  0  0  0  0  0
   23.6560   11.0150   -8.6450 C   0  0  1  0  0  0  0  0  0  0  0  0
   28.8165    6.0599  -10.8477 H   0  0  0  0  0  0  0  0  0  0  0  0
   30.3091    7.2238  -12.4112 H   0  0  0  0  0  0  0  0  0  0  0  0
   27.0453    9.8681   -9.8725 H   0  0  0  0  0  0  0  0  0  0  0  0
   30.1613   12.2039  -13.1364 H   0  0  0  0  0  0  0  0  0  0  0  0
   28.2021   11.8825  -11.3186 H   0  0  0  0  0  0  0  0  0  0  0  0
   26.4191    6.5194   -6.4502 H   0  0  0  0  0  0  0  0  0  0  0  0
   22.6197   11.2679   -6.1474 H   0  0  0  0  0  0  0  0  0  0  0  0
   23.0876    9.8405   -4.1608 H   0  0  0  0  0  0  0  0  0  0  0  0
   23.3300   12.0113   -8.3117 H   0  0  0  0  0  0  0  0  0  0  0  0
   24.5694   11.1115   -9.2503 H   0  0  0  0  0  0  0  0  0  0  0  0
   22.8622   10.5529   -9.2503 H   0  0  0  0  0  0  0  0  0  0  0  0
  5  1  1  0
  5 11  1  0
  1  2  2  0
  1  7  1  0
  2  3  1  0
  3  4  1  0
  4  8  2  0
  4  6  1  0
  6 10  1  0
  6  7  2  0
  8  9  1  0
  9 10  2  0
 11 12  2  0
 11 15  1  0
 12 13  1  0
 13 16  1  0
 13 14  1  0
 14 15  2  0
 14 19  1  0
 16 20  1  0
 16 17  2  0
 17 18  1  0
 18 19  2  0
  2 21  1  0
  3 22  1  0
  7 23  1  0
  9 24  1  0
 10 25  1  0
 15 26  1  0
 17 27  1  0
 18 28  1  0
 20 29  1  1
 20 30  1  0
 20 31  1  0
M  END
>  <Pose ID>  (418)
358

>  <Score>  (418)
-5.638795852661133

>  <smiles>  (418)
Cc1ccnc2cc(Oc3c[nH]c4nccc-4c3)nn12

$$$$

     RDKit          3D

 19 20  0  0  0  0  0  0  0  0999 V2000
   29.1850    7.1660  -11.0810 C   0  0  0  0  0  0  0  0  0  0  0  0
   28.2430    7.0390  -10.0680 N   0  0  0  0  0  0  0  0  0  0  0  0
   27.3610    8.0790   -9.8050 C   0  0  0  0  0  0  0  0  0  0  0  0
   26.4940    7.8830   -8.7660 C   0  0  0  0  0  0  0  0  0  0  0  0
   25.5590    8.8540   -8.4260 N   0  0  0  0  0  0  0  0  0  0  0  0
   25.5070   10.0470   -9.1360 C   0  0  0  0  0  0  0  0  0  0  0  0
   26.3900   10.2700  -10.1860 C   0  0  0  0  0  0  0  0  0  0  0  0
   27.4200    9.2480  -10.5540 C   0  0  0  0  0  0  0  0  0  0  0  0
   29.2460    8.3340  -11.8310 C   0  0  0  0  0  0  0  0  0  0  0  0
   28.3630    9.3750  -11.5680 C   0  0  0  0  0  0  0  0  0  0  0  0
   28.4290   10.6440  -12.3830 C   0  0  1  0  0  0  0  0  0  0  0  0
   29.8828    6.3416  -11.2894 H   0  0  0  0  0  0  0  0  0  0  0  0
   26.5369    6.9455   -8.1921 H   0  0  0  0  0  0  0  0  0  0  0  0
   24.7670   10.8152   -8.8672 H   0  0  0  0  0  0  0  0  0  0  0  0
   26.3311   11.2101  -10.7542 H   0  0  0  0  0  0  0  0  0  0  0  0
   29.9926    8.4349  -12.6325 H   0  0  0  0  0  0  0  0  0  0  0  0
   28.4741   11.5114  -11.7080 H   0  0  0  0  0  0  0  0  0  0  0  0
   29.3274   10.6260  -13.0174 H   0  0  0  0  0  0  0  0  0  0  0  0
   27.5336   10.7193  -13.0174 H   0  0  0  0  0  0  0  0  0  0  0  0
  1  9  2  0
  1  2  1  0
  2  3  2  0
  3  8  1  0
  3  4  1  0
  4  5  2  0
  5  6  1  0
  6  7  2  0
  7  8  1  0
  8 10  2  0
  9 10  1  0
 10 11  1  0
  1 12  1  0
  4 13  1  0
  6 14  1  0
  7 15  1  0
  9 16  1  0
 11 17  1  1
 11 18  1  0
 11 19  1  0
M  END
>  <Pose ID>  (419)
20

>  <Score>  (419)
-5.637487888336182

>  <smiles>  (419)
Cc1ccnc2cnccc12

$$$$

     RDKit          3D

 38 41  0  0  0  0  0  0  0  0999 V2000
   27.9850    7.8740  -10.4950 C   0  0  0  0  0  0  0  0  0  0  0  0
   28.8100    7.1040  -11.3030 C   0  0  0  0  0  0  0  0  0  0  0  0
   29.7140    7.7180  -12.1610 N   0  0  0  0  0  0  0  0  0  0  0  0
   29.7930    9.1040  -12.2130 C   0  0  0  0  0  0  0  0  0  0  0  0
   27.1010    7.0800   -9.6470 O   0  0  0  0  0  0  0  0  0  0  0  0
   28.9640    9.8760  -11.4060 C   0  0  0  0  0  0  0  0  0  0  0  0
   28.0630    9.2610  -10.5440 C   0  0  0  0  0  0  0  0  0  0  0  0
   30.5730    9.9170  -12.9480 N   0  0  0  0  0  0  0  0  0  0  0  0
   30.2660   11.2250  -12.6410 C   0  0  0  0  0  0  0  0  0  0  0  0
   29.2510   11.0290  -11.6780 C   0  0  0  0  0  0  0  0  0  0  0  0
   26.3950    7.5920   -8.5510 C   0  0  0  0  0  0  0  0  0  0  0  0
   25.7340    8.7940   -8.7340 N   0  0  0  0  0  0  0  0  0  0  0  0
   25.1330    9.1350   -7.5370 N   0  0  0  0  0  0  0  0  0  0  0  0
   25.3960    8.1710   -6.6400 C   0  0  0  0  0  0  0  0  0  0  0  0
   26.1400    7.2350   -7.2370 C   0  0  0  0  0  0  0  0  0  0  0  0
   24.4250   10.2190   -7.3710 C   0  0  0  0  0  0  0  0  0  0  0  0
   23.7500   10.7010   -6.2580 C   0  0  0  0  0  0  0  0  0  0  0  0
   24.4410   10.9540   -8.5490 C   0  0  0  0  0  0  0  0  0  0  0  0
   23.7810   12.1770   -8.6140 C   0  0  0  0  0  0  0  0  0  0  0  0
   23.1060   12.6610   -7.5000 C   0  0  0  0  0  0  0  0  0  0  0  0
   23.0900   11.9240   -6.3220 N   0  0  0  0  0  0  0  0  0  0  0  0
   23.7330    9.9020   -4.9790 C   0  0  1  0  0  0  0  0  0  0  0  0
   23.0690   10.6570   -3.8150 C   0  0  1  0  0  0  0  0  0  0  0  0
   28.7481    6.0064  -11.2640 H   0  0  0  0  0  0  0  0  0  0  0  0
   30.3262    7.1450  -12.7591 H   0  0  0  0  0  0  0  0  0  0  0  0
   27.4122    9.8718   -9.9011 H   0  0  0  0  0  0  0  0  0  0  0  0
   30.6918   12.1595  -13.0352 H   0  0  0  0  0  0  0  0  0  0  0  0
   28.7433   11.8775  -11.1961 H   0  0  0  0  0  0  0  0  0  0  0  0
   25.0573    8.1545   -5.5936 H   0  0  0  0  0  0  0  0  0  0  0  0
   26.4983    6.3137   -6.7545 H   0  0  0  0  0  0  0  0  0  0  0  0
   24.9752   10.5695   -9.4303 H   0  0  0  0  0  0  0  0  0  0  0  0
   23.7935   12.7604   -9.5465 H   0  0  0  0  0  0  0  0  0  0  0  0
   22.5841   13.6280   -7.5506 H   0  0  0  0  0  0  0  0  0  0  0  0
   23.1782    8.9686   -5.1548 H   0  0  0  0  0  0  0  0  0  0  0  0
   24.7779    9.7076   -4.6953 H   0  0  0  0  0  0  0  0  0  0  0  0
   23.4290   10.2476   -2.8596 H   0  0  0  0  0  0  0  0  0  0  0  0
   23.3260   11.7248   -3.8765 H   0  0  0  0  0  0  0  0  0  0  0  0
   21.9771   10.5385   -3.8765 H   0  0  0  0  0  0  0  0  0  0  0  0
 11  5  1  0
 11 12  2  0
 11 15  1  0
 12 13  1  0
 13 16  1  0
 13 14  1  0
 14 15  2  0
 16 18  1  0
 16 17  2  0
 17 21  1  0
 17 22  1  0
 18 19  2  0
 19 20  1  0
 20 21  2  0
 22 23  1  0
  5  1  1  0
  1  2  2  0
  1  7  1  0
  2  3  1  0
  3  4  1  0
  4  8  2  0
  4  6  1  0
  6 10  1  0
  6  7  2  0
  8  9  1  0
  9 10  2  0
  2 24  1  0
  3 25  1  0
  7 26  1  0
  9 27  1  0
 10 28  1  0
 14 29  1  0
 15 30  1  0
 18 31  1  0
 19 32  1  0
 20 33  1  0
 22 34  1  6
 22 35  1  0
 23 36  1  1
 23 37  1  0
 23 38  1  0
M  END
>  <Pose ID>  (420)
431

>  <Score>  (420)
-5.634566783905029

>  <smiles>  (420)
CCc1ncccc1-n1ccc(Oc2c[nH]c3nccc-3c2)n1

$$$$

     RDKit          3D

 38 41  0  0  0  0  0  0  0  0999 V2000
   27.7000    7.8280  -10.2530 C   0  0  0  0  0  0  0  0  0  0  0  0
   28.5090    7.1020  -11.1190 C   0  0  0  0  0  0  0  0  0  0  0  0
   29.3360    7.7640  -12.0180 N   0  0  0  0  0  0  0  0  0  0  0  0
   29.3560    9.1530  -12.0500 C   0  0  0  0  0  0  0  0  0  0  0  0
   26.9000    6.9870   -9.3680 O   0  0  0  0  0  0  0  0  0  0  0  0
   28.5460    9.8810  -11.1830 C   0  0  0  0  0  0  0  0  0  0  0  0
   27.7200    9.2170  -10.2850 C   0  0  0  0  0  0  0  0  0  0  0  0
   30.0590   10.0090  -12.8180 N   0  0  0  0  0  0  0  0  0  0  0  0
   29.7190   11.2980  -12.4710 C   0  0  0  0  0  0  0  0  0  0  0  0
   28.7720   11.0470  -11.4550 C   0  0  0  0  0  0  0  0  0  0  0  0
   26.2390    7.4530   -8.2260 C   0  0  0  0  0  0  0  0  0  0  0  0
   25.5180    8.6310   -8.3510 N   0  0  0  0  0  0  0  0  0  0  0  0
   24.9750    8.9300   -7.1150 N   0  0  0  0  0  0  0  0  0  0  0  0
   25.3290    7.9670   -6.2520 C   0  0  0  0  0  0  0  0  0  0  0  0
   26.0720    7.0690   -6.9070 C   0  0  0  0  0  0  0  0  0  0  0  0
   24.2200   10.0200   -6.8610 C   0  0  0  0  0  0  0  0  0  0  0  0
   24.7350   11.2770   -7.1560 C   0  0  0  0  0  0  0  0  0  0  0  0
   23.1140    9.9010   -6.0290 C   0  0  0  0  0  0  0  0  0  0  0  0
   24.1430   12.4140   -6.6200 C   0  0  0  0  0  0  0  0  0  0  0  0
   22.5210   11.0380   -5.4930 N   0  0  0  0  0  0  0  0  0  0  0  0
   23.0400   12.3020   -5.7860 C   0  0  0  0  0  0  0  0  0  0  0  0
   22.4040   13.5380   -5.1990 C   0  0  1  0  0  0  0  0  0  0  0  0
   24.7020   13.7770   -6.9470 C   0  0  1  0  0  0  0  0  0  0  0  0
   28.4945    6.0024  -11.0927 H   0  0  0  0  0  0  0  0  0  0  0  0
   29.9341    7.2253  -12.6606 H   0  0  0  0  0  0  0  0  0  0  0  0
   27.0809    9.7915   -9.5983 H   0  0  0  0  0  0  0  0  0  0  0  0
   30.0834   12.2548  -12.8731 H   0  0  0  0  0  0  0  0  0  0  0  0
   28.2603   11.8681  -10.9316 H   0  0  0  0  0  0  0  0  0  0  0  0
   25.0551    7.9232   -5.1875 H   0  0  0  0  0  0  0  0  0  0  0  0
   26.4910    6.1550   -6.4609 H   0  0  0  0  0  0  0  0  0  0  0  0
   25.6114   11.3716   -7.8140 H   0  0  0  0  0  0  0  0  0  0  0  0
   22.7073    8.9063   -5.7942 H   0  0  0  0  0  0  0  0  0  0  0  0
   22.4340   13.4796   -4.1010 H   0  0  0  0  0  0  0  0  0  0  0  0
   22.9558   14.4287   -5.5341 H   0  0  0  0  0  0  0  0  0  0  0  0
   21.3585   13.6068   -5.5341 H   0  0  0  0  0  0  0  0  0  0  0  0
   24.9231   14.3161   -6.0140 H   0  0  0  0  0  0  0  0  0  0  0  0
   25.6262   13.6634   -7.5327 H   0  0  0  0  0  0  0  0  0  0  0  0
   23.9642   14.3450   -7.5327 H   0  0  0  0  0  0  0  0  0  0  0  0
 11  5  1  0
 11 12  2  0
 11 15  1  0
 12 13  1  0
 13 16  1  0
 13 14  1  0
 14 15  2  0
 16 17  2  0
 16 18  1  0
 17 19  1  0
 18 20  2  0
 19 23  1  0
 19 21  2  0
 20 21  1  0
 21 22  1  0
  5  1  1  0
  1  2  2  0
  1  7  1  0
  2  3  1  0
  3  4  1  0
  4  8  2  0
  4  6  1  0
  6 10  1  0
  6  7  2  0
  8  9  1  0
  9 10  2  0
  2 24  1  0
  3 25  1  0
  7 26  1  0
  9 27  1  0
 10 28  1  0
 14 29  1  0
 15 30  1  0
 17 31  1  0
 18 32  1  0
 22 33  1  1
 22 34  1  0
 22 35  1  0
 23 36  1  1
 23 37  1  0
 23 38  1  0
M  END
>  <Pose ID>  (421)
454

>  <Score>  (421)
-5.6342339515686035

>  <smiles>  (421)
Cc1cc(-n2ccc(Oc3c[nH]c4nccc-4c3)n2)cnc1C

$$$$

     RDKit          3D

 35 38  0  0  0  0  0  0  0  0999 V2000
   27.5720    7.7170  -10.1460 C   0  0  0  0  0  0  0  0  0  0  0  0
   28.3060    7.0320  -11.1040 C   0  0  0  0  0  0  0  0  0  0  0  0
   29.1040    7.7330  -12.0020 N   0  0  0  0  0  0  0  0  0  0  0  0
   29.1670    9.1190  -11.9400 C   0  0  0  0  0  0  0  0  0  0  0  0
   26.7940    6.8370   -9.2770 O   0  0  0  0  0  0  0  0  0  0  0  0
   28.4290    9.8080  -10.9790 C   0  0  0  0  0  0  0  0  0  0  0  0
   27.6340    9.1040  -10.0830 C   0  0  0  0  0  0  0  0  0  0  0  0
   29.8530   10.0060  -12.6850 N   0  0  0  0  0  0  0  0  0  0  0  0
   29.5760   11.2750  -12.2300 C   0  0  0  0  0  0  0  0  0  0  0  0
   28.6780   10.9800  -11.1810 C   0  0  0  0  0  0  0  0  0  0  0  0
   26.2140    7.2390   -8.0690 C   0  0  0  0  0  0  0  0  0  0  0  0
   25.5260    8.4430   -8.0720 N   0  0  0  0  0  0  0  0  0  0  0  0
   25.0610    8.6670   -6.7880 N   0  0  0  0  0  0  0  0  0  0  0  0
   25.4310    7.6370   -6.0150 C   0  0  0  0  0  0  0  0  0  0  0  0
   26.1070    6.7680   -6.7740 C   0  0  0  0  0  0  0  0  0  0  0  0
   24.3520    9.7180   -6.4140 C   0  0  0  0  0  0  0  0  0  0  0  0
   24.8500   11.0090   -6.5480 C   0  0  0  0  0  0  0  0  0  0  0  0
   23.0700    9.5160   -5.9190 C   0  0  0  0  0  0  0  0  0  0  0  0
   22.2840   10.6050   -5.5600 C   0  0  0  0  0  0  0  0  0  0  0  0
   22.7810   11.8960   -5.6950 C   0  0  0  0  0  0  0  0  0  0  0  0
   24.0630   12.0980   -6.1890 N   0  0  0  0  0  0  0  0  0  0  0  0
   22.5310    8.1150   -5.7700 C   0  0  1  0  0  0  0  0  0  0  0  0
   28.2567    5.9342  -11.1532 H   0  0  0  0  0  0  0  0  0  0  0  0
   29.6483    7.2241  -12.7131 H   0  0  0  0  0  0  0  0  0  0  0  0
   27.0525    9.6455   -9.3223 H   0  0  0  0  0  0  0  0  0  0  0  0
   29.9496   12.2470  -12.5844 H   0  0  0  0  0  0  0  0  0  0  0  0
   28.2237   11.7764  -10.5732 H   0  0  0  0  0  0  0  0  0  0  0  0
   25.2160    7.5256   -4.9420 H   0  0  0  0  0  0  0  0  0  0  0  0
   26.5199    5.8127   -6.4178 H   0  0  0  0  0  0  0  0  0  0  0  0
   25.8661   11.1691   -6.9378 H   0  0  0  0  0  0  0  0  0  0  0  0
   21.2684   10.4449   -5.1690 H   0  0  0  0  0  0  0  0  0  0  0  0
   22.1590   12.7575   -5.4106 H   0  0  0  0  0  0  0  0  0  0  0  0
   22.4368    7.8701   -4.7018 H   0  0  0  0  0  0  0  0  0  0  0  0
   21.5433    8.0491   -6.2498 H   0  0  0  0  0  0  0  0  0  0  0  0
   23.2198    7.4042   -6.2498 H   0  0  0  0  0  0  0  0  0  0  0  0
 11  5  1  0
 11 12  2  0
 11 15  1  0
 12 13  1  0
 13 16  1  0
 13 14  1  0
 14 15  2  0
 16 17  2  0
 16 18  1  0
 17 21  1  0
 18 22  1  0
 18 19  2  0
 19 20  1  0
 20 21  2  0
  5  1  1  0
  1  2  2  0
  1  7  1  0
  2  3  1  0
  3  4  1  0
  4  8  2  0
  4  6  1  0
  6 10  1  0
  6  7  2  0
  8  9  1  0
  9 10  2  0
  2 23  1  0
  3 24  1  0
  7 25  1  0
  9 26  1  0
 10 27  1  0
 14 28  1  0
 15 29  1  0
 17 30  1  0
 19 31  1  0
 20 32  1  0
 22 33  1  1
 22 34  1  0
 22 35  1  0
M  END
>  <Pose ID>  (422)
248

>  <Score>  (422)
-5.629995822906494

>  <smiles>  (422)
Cc1ccncc1-n1ccc(Oc2c[nH]c3nccc-3c2)n1

$$$$

     RDKit          3D

 37 40  0  0  0  0  0  0  0  0999 V2000
   27.8110    7.8280  -10.2870 C   0  0  0  0  0  0  0  0  0  0  0  0
   28.7920    7.1160  -10.9670 C   0  0  0  0  0  0  0  0  0  0  0  0
   29.6570    7.7770  -11.8290 N   0  0  0  0  0  0  0  0  0  0  0  0
   29.5440    9.1500  -12.0110 C   0  0  0  0  0  0  0  0  0  0  0  0
   26.9910    6.9900   -9.4160 O   0  0  0  0  0  0  0  0  0  0  0  0
   28.5600    9.8630  -11.3320 C   0  0  0  0  0  0  0  0  0  0  0  0
   27.6980    9.2000  -10.4690 C   0  0  0  0  0  0  0  0  0  0  0  0
   30.2520   10.0010  -12.7800 N   0  0  0  0  0  0  0  0  0  0  0  0
   29.7440   11.2710  -12.6200 C   0  0  0  0  0  0  0  0  0  0  0  0
   28.7020   11.0150  -11.7010 C   0  0  0  0  0  0  0  0  0  0  0  0
   26.1440    7.4880   -8.4180 C   0  0  0  0  0  0  0  0  0  0  0  0
   25.3350    8.5590   -8.7530 N   0  0  0  0  0  0  0  0  0  0  0  0
   24.6380    8.8920   -7.6580 N   0  0  0  0  0  0  0  0  0  0  0  0
   24.9390    8.0560   -6.5900 C   0  0  0  0  0  0  0  0  0  0  0  0
   25.8500    7.2160   -7.0930 C   0  0  0  0  0  0  0  0  0  0  0  0
   23.7000    9.9060   -7.5030 C   0  0  0  0  0  0  0  0  0  0  0  0
   23.0620   10.0830   -6.2820 N   0  0  0  0  0  0  0  0  0  0  0  0
   23.3620    9.2450   -5.2130 C   0  0  0  0  0  0  0  0  0  0  0  0
   24.3000    8.2320   -5.3670 C   0  0  0  0  0  0  0  0  0  0  0  0
   22.6690    9.4370   -3.8870 C   0  0  1  0  0  0  0  0  0  0  0  0
   21.8350   10.7340   -3.8440 C   0  0  1  0  0  0  0  0  0  0  0  0
   24.6260    7.3220   -4.2080 C   0  0  1  0  0  0  0  0  0  0  0  0
   28.8831    6.0294  -10.8224 H   0  0  0  0  0  0  0  0  0  0  0  0
   30.3831    7.2491  -12.3340 H   0  0  0  0  0  0  0  0  0  0  0  0
   26.9233    9.7631   -9.9279 H   0  0  0  0  0  0  0  0  0  0  0  0
   30.0608   12.2191  -13.0791 H   0  0  0  0  0  0  0  0  0  0  0  0
   28.0480   11.8202  -11.3350 H   0  0  0  0  0  0  0  0  0  0  0  0
   26.3136    6.4006   -6.5184 H   0  0  0  0  0  0  0  0  0  0  0  0
   23.4627   10.5689   -8.3481 H   0  0  0  0  0  0  0  0  0  0  0  0
   22.0011    8.5811   -3.7098 H   0  0  0  0  0  0  0  0  0  0  0  0
   23.4441    9.5097   -3.1099 H   0  0  0  0  0  0  0  0  0  0  0  0
   21.6524   11.0180   -2.7971 H   0  0  0  0  0  0  0  0  0  0  0  0
   22.3844   11.5402   -4.3521 H   0  0  0  0  0  0  0  0  0  0  0  0
   20.8735   10.5687   -4.3521 H   0  0  0  0  0  0  0  0  0  0  0  0
   24.4366    7.8507   -3.2622 H   0  0  0  0  0  0  0  0  0  0  0  0
   23.9940    6.4231   -4.2585 H   0  0  0  0  0  0  0  0  0  0  0  0
   25.6850    7.0289   -4.2585 H   0  0  0  0  0  0  0  0  0  0  0  0
 11  5  1  0
 11 12  2  0
 11 15  1  0
 12 13  1  0
 13 16  1  0
 13 14  1  0
 14 15  2  0
 14 19  1  0
 16 17  2  0
 17 18  1  0
 18 19  2  0
 18 20  1  0
 19 22  1  0
 20 21  1  0
  5  1  1  0
  1  2  2  0
  1  7  1  0
  2  3  1  0
  3  4  1  0
  4  8  2  0
  4  6  1  0
  6 10  1  0
  6  7  2  0
  8  9  1  0
  9 10  2  0
  2 23  1  0
  3 24  1  0
  7 25  1  0
  9 26  1  0
 10 27  1  0
 15 28  1  0
 16 29  1  0
 20 30  1  1
 20 31  1  0
 21 32  1  1
 21 33  1  0
 21 34  1  0
 22 35  1  1
 22 36  1  0
 22 37  1  0
M  END
>  <Pose ID>  (423)
300

>  <Score>  (423)
-5.6210198402404785

>  <smiles>  (423)
CCc1ncn2nc(Oc3c[nH]c4nccc-4c3)cc2c1C

$$$$

     RDKit          3D

 38 41  0  0  0  0  0  0  0  0999 V2000
   27.0140    8.3300  -10.1460 C   0  0  0  0  0  0  0  0  0  0  0  0
   27.6070    7.2870  -10.8460 C   0  0  0  0  0  0  0  0  0  0  0  0
   28.6670    7.5420  -11.7060 N   0  0  0  0  0  0  0  0  0  0  0  0
   29.1380    8.8390  -11.8650 C   0  0  0  0  0  0  0  0  0  0  0  0
   25.9210    7.8960   -9.2800 O   0  0  0  0  0  0  0  0  0  0  0  0
   28.5450    9.8840  -11.1640 C   0  0  0  0  0  0  0  0  0  0  0  0
   27.4850    9.6280  -10.3030 C   0  0  0  0  0  0  0  0  0  0  0  0
   30.1360    9.3300  -12.6250 N   0  0  0  0  0  0  0  0  0  0  0  0
   30.2060   10.6940  -12.4400 C   0  0  0  0  0  0  0  0  0  0  0  0
   29.1560   10.8790  -11.5160 C   0  0  0  0  0  0  0  0  0  0  0  0
   25.3620    8.6820   -8.2650 C   0  0  0  0  0  0  0  0  0  0  0  0
   25.0750   10.0020   -8.5760 N   0  0  0  0  0  0  0  0  0  0  0  0
   24.5640   10.6040   -7.4410 N   0  0  0  0  0  0  0  0  0  0  0  0
   24.5240    9.6920   -6.4590 C   0  0  0  0  0  0  0  0  0  0  0  0
   24.9830    8.5350   -6.9420 C   0  0  0  0  0  0  0  0  0  0  0  0
   24.1750   11.8600   -7.3510 C   0  0  0  0  0  0  0  0  0  0  0  0
   24.3890   12.5230   -8.5540 C   0  0  0  0  0  0  0  0  0  0  0  0
   24.0080   13.8520   -8.6930 C   0  0  0  0  0  0  0  0  0  0  0  0
   23.4140   14.5190   -7.6280 C   0  0  0  0  0  0  0  0  0  0  0  0
   23.5790   12.5250   -6.2870 C   0  0  0  0  0  0  0  0  0  0  0  0
   23.2020   13.8650   -6.4500 N   0  0  0  0  0  0  0  0  0  0  0  0
   25.0750    7.2490   -6.1580 C   0  0  1  0  0  0  0  0  0  0  0  0
   23.0040   15.9640   -7.7740 C   0  0  1  0  0  0  0  0  0  0  0  0
   27.2369    6.2589  -10.7191 H   0  0  0  0  0  0  0  0  0  0  0  0
   29.1045    6.7684  -12.2266 H   0  0  0  0  0  0  0  0  0  0  0  0
   27.0183   10.4533   -9.7452 H   0  0  0  0  0  0  0  0  0  0  0  0
   30.8888   11.4314  -12.8872 H   0  0  0  0  0  0  0  0  0  0  0  0
   28.8998   11.8767  -11.1301 H   0  0  0  0  0  0  0  0  0  0  0  0
   24.1731    9.8670   -5.4313 H   0  0  0  0  0  0  0  0  0  0  0  0
   24.8602   11.9952   -9.3963 H   0  0  0  0  0  0  0  0  0  0  0  0
   24.1764   14.3760   -9.6454 H   0  0  0  0  0  0  0  0  0  0  0  0
   23.4057   12.0081   -5.3316 H   0  0  0  0  0  0  0  0  0  0  0  0
   25.0589    7.4740   -5.0814 H   0  0  0  0  0  0  0  0  0  0  0  0
   24.2207    6.6037   -6.4106 H   0  0  0  0  0  0  0  0  0  0  0  0
   26.0124    6.7319   -6.4106 H   0  0  0  0  0  0  0  0  0  0  0  0
   22.8770   16.4116   -6.7772 H   0  0  0  0  0  0  0  0  0  0  0  0
   23.7821   16.5120   -8.3256 H   0  0  0  0  0  0  0  0  0  0  0  0
   22.0540   16.0217   -8.3256 H   0  0  0  0  0  0  0  0  0  0  0  0
 11  5  1  0
 11 12  2  0
 11 15  1  0
 12 13  1  0
 13 16  1  0
 13 14  1  0
 14 15  2  0
 15 22  1  0
 16 17  2  0
 16 20  1  0
 17 18  1  0
 18 19  2  0
 19 23  1  0
 19 21  1  0
 20 21  2  0
  5  1  1  0
  1  2  2  0
  1  7  1  0
  2  3  1  0
  3  4  1  0
  4  8  2  0
  4  6  1  0
  6 10  1  0
  6  7  2  0
  8  9  1  0
  9 10  2  0
  2 24  1  0
  3 25  1  0
  7 26  1  0
  9 27  1  0
 10 28  1  0
 14 29  1  0
 17 30  1  0
 18 31  1  0
 20 32  1  0
 22 33  1  1
 22 34  1  0
 22 35  1  0
 23 36  1  1
 23 37  1  0
 23 38  1  0
M  END
>  <Pose ID>  (424)
422

>  <Score>  (424)
-5.619140148162842

>  <smiles>  (424)
Cc1ccc(-n2cc(C)c(Oc3c[nH]c4nccc-4c3)n2)cn1

$$$$

     RDKit          3D

 38 41  0  0  0  0  0  0  0  0999 V2000
   27.7000    7.8280  -10.2530 C   0  0  0  0  0  0  0  0  0  0  0  0
   28.5090    7.1020  -11.1190 C   0  0  0  0  0  0  0  0  0  0  0  0
   29.3360    7.7640  -12.0180 N   0  0  0  0  0  0  0  0  0  0  0  0
   29.3560    9.1530  -12.0500 C   0  0  0  0  0  0  0  0  0  0  0  0
   26.9000    6.9870   -9.3680 O   0  0  0  0  0  0  0  0  0  0  0  0
   28.5460    9.8810  -11.1830 C   0  0  0  0  0  0  0  0  0  0  0  0
   27.7200    9.2170  -10.2850 C   0  0  0  0  0  0  0  0  0  0  0  0
   30.0590   10.0090  -12.8180 N   0  0  0  0  0  0  0  0  0  0  0  0
   29.7190   11.2980  -12.4710 C   0  0  0  0  0  0  0  0  0  0  0  0
   28.7720   11.0470  -11.4550 C   0  0  0  0  0  0  0  0  0  0  0  0
   26.2390    7.4530   -8.2260 C   0  0  0  0  0  0  0  0  0  0  0  0
   25.5180    8.6310   -8.3510 N   0  0  0  0  0  0  0  0  0  0  0  0
   24.9750    8.9300   -7.1150 N   0  0  0  0  0  0  0  0  0  0  0  0
   25.3290    7.9670   -6.2520 C   0  0  0  0  0  0  0  0  0  0  0  0
   26.0720    7.0690   -6.9070 C   0  0  0  0  0  0  0  0  0  0  0  0
   24.2200   10.0200   -6.8610 C   0  0  0  0  0  0  0  0  0  0  0  0
   24.7350   11.2770   -7.1560 C   0  0  0  0  0  0  0  0  0  0  0  0
   23.1140    9.9010   -6.0290 C   0  0  0  0  0  0  0  0  0  0  0  0
   24.1430   12.4140   -6.6200 C   0  0  0  0  0  0  0  0  0  0  0  0
   22.5210   11.0380   -5.4930 N   0  0  0  0  0  0  0  0  0  0  0  0
   23.0400   12.3020   -5.7860 C   0  0  0  0  0  0  0  0  0  0  0  0
   22.4040   13.5380   -5.1990 C   0  0  1  0  0  0  0  0  0  0  0  0
   22.5560    8.5370   -5.7070 C   0  0  1  0  0  0  0  0  0  0  0  0
   28.4945    6.0024  -11.0927 H   0  0  0  0  0  0  0  0  0  0  0  0
   29.9341    7.2253  -12.6606 H   0  0  0  0  0  0  0  0  0  0  0  0
   27.0809    9.7915   -9.5983 H   0  0  0  0  0  0  0  0  0  0  0  0
   30.0834   12.2548  -12.8731 H   0  0  0  0  0  0  0  0  0  0  0  0
   28.2603   11.8681  -10.9316 H   0  0  0  0  0  0  0  0  0  0  0  0
   25.0551    7.9232   -5.1875 H   0  0  0  0  0  0  0  0  0  0  0  0
   26.4910    6.1550   -6.4609 H   0  0  0  0  0  0  0  0  0  0  0  0
   25.6114   11.3716   -7.8140 H   0  0  0  0  0  0  0  0  0  0  0  0
   24.5507   13.4075   -6.8580 H   0  0  0  0  0  0  0  0  0  0  0  0
   22.4340   13.4796   -4.1010 H   0  0  0  0  0  0  0  0  0  0  0  0
   22.9558   14.4287   -5.5341 H   0  0  0  0  0  0  0  0  0  0  0  0
   21.3585   13.6068   -5.5341 H   0  0  0  0  0  0  0  0  0  0  0  0
   22.5042    8.4104   -4.6155 H   0  0  0  0  0  0  0  0  0  0  0  0
   21.5472    8.4431   -6.1353 H   0  0  0  0  0  0  0  0  0  0  0  0
   23.2097    7.7629   -6.1353 H   0  0  0  0  0  0  0  0  0  0  0  0
 11  5  1  0
 11 12  2  0
 11 15  1  0
 12 13  1  0
 13 16  1  0
 13 14  1  0
 14 15  2  0
 16 17  2  0
 16 18  1  0
 17 19  1  0
 18 23  1  0
 18 20  2  0
 19 21  2  0
 20 21  1  0
 21 22  1  0
  5  1  1  0
  1  2  2  0
  1  7  1  0
  2  3  1  0
  3  4  1  0
  4  8  2  0
  4  6  1  0
  6 10  1  0
  6  7  2  0
  8  9  1  0
  9 10  2  0
  2 24  1  0
  3 25  1  0
  7 26  1  0
  9 27  1  0
 10 28  1  0
 14 29  1  0
 15 30  1  0
 17 31  1  0
 19 32  1  0
 22 33  1  1
 22 34  1  0
 22 35  1  0
 23 36  1  1
 23 37  1  0
 23 38  1  0
M  END
>  <Pose ID>  (425)
455

>  <Score>  (425)
-5.605541706085205

>  <smiles>  (425)
Cc1ccc(-n2ccc(Oc3c[nH]c4nccc-4c3)n2)c(C)n1

$$$$

     RDKit          3D

 29 31  0  0  0  0  0  0  0  0999 V2000
   28.5970    9.6580  -12.0030 C   0  0  0  0  0  0  0  0  0  0  0  0
   29.3000    8.4750  -11.8650 C   0  0  0  0  0  0  0  0  0  0  0  0
   28.8260    7.4840  -11.0120 N   0  0  0  0  0  0  0  0  0  0  0  0
   27.6620    7.6900  -10.2830 C   0  0  0  0  0  0  0  0  0  0  0  0
   27.4400    9.8810  -11.2570 C   0  0  0  0  0  0  0  0  0  0  0  0
   26.9690    8.8880  -10.4050 C   0  0  0  0  0  0  0  0  0  0  0  0
   27.0190    6.8950   -9.4090 N   0  0  0  0  0  0  0  0  0  0  0  0
   25.9040    7.5570   -8.9450 C   0  0  0  0  0  0  0  0  0  0  0  0
   26.0200    8.7760   -9.6480 C   0  0  0  0  0  0  0  0  0  0  0  0
   24.8730    7.3100   -8.0730 N   0  0  0  0  0  0  0  0  0  0  0  0
   24.6970    7.9660   -6.8460 C   0  0  0  0  0  0  0  0  0  0  0  0
   23.9790    9.1550   -6.8090 C   0  0  0  0  0  0  0  0  0  0  0  0
   23.7950    9.8180   -5.6020 C   0  0  0  0  0  0  0  0  0  0  0  0
   24.3300    9.2940   -4.4320 C   0  0  0  0  0  0  0  0  0  0  0  0
   25.0500    8.1040   -4.4680 N   0  0  0  0  0  0  0  0  0  0  0  0
   25.2320    7.4410   -5.6770 C   0  0  0  0  0  0  0  0  0  0  0  0
   24.1310   10.0140   -3.1210 C   0  0  1  0  0  0  0  0  0  0  0  0
   28.9523   10.4270  -12.7048 H   0  0  0  0  0  0  0  0  0  0  0  0
   30.2316    8.3183  -12.4284 H   0  0  0  0  0  0  0  0  0  0  0  0
   29.3392    6.5956  -10.9208 H   0  0  0  0  0  0  0  0  0  0  0  0
   26.9029   10.8372  -11.3421 H   0  0  0  0  0  0  0  0  0  0  0  0
   25.2881    9.5869   -9.5186 H   0  0  0  0  0  0  0  0  0  0  0  0
   24.1815    6.5941   -8.3379 H   0  0  0  0  0  0  0  0  0  0  0  0
   23.5563    9.5713   -7.7353 H   0  0  0  0  0  0  0  0  0  0  0  0
   23.2253   10.7585   -5.5728 H   0  0  0  0  0  0  0  0  0  0  0  0
   25.8004    6.4997   -5.7072 H   0  0  0  0  0  0  0  0  0  0  0  0
   24.3227    9.3204   -2.2890 H   0  0  0  0  0  0  0  0  0  0  0  0
   24.8283   10.8625   -3.0591 H   0  0  0  0  0  0  0  0  0  0  0  0
   23.0969   10.3840   -3.0591 H   0  0  0  0  0  0  0  0  0  0  0  0
  1  2  2  0
  1  5  1  0
  2  3  1  0
  3  4  1  0
  4  6  1  0
  4  7  2  0
  5  6  2  0
  6  9  1  0
  7  8  1  0
  8  9  2  0
  8 10  1  0
 10 11  1  0
 11 12  2  0
 11 16  1  0
 12 13  1  0
 13 14  2  0
 14 15  1  0
 14 17  1  0
 15 16  2  0
  1 18  1  0
  2 19  1  0
  3 20  1  0
  5 21  1  0
  9 22  1  0
 10 23  1  0
 12 24  1  0
 13 25  1  0
 16 26  1  0
 17 27  1  1
 17 28  1  0
 17 29  1  0
M  END
>  <Pose ID>  (426)
199

>  <Score>  (426)
-5.604790210723877

>  <smiles>  (426)
Cc1ccc(Nc2cc3ccc[nH]c-3n2)cn1

$$$$

     RDKit          3D

 40 43  0  0  0  0  0  0  0  0999 V2000
   27.8850    7.7550  -10.2200 C   0  0  0  0  0  0  0  0  0  0  0  0
   28.9080    7.0900  -10.8840 C   0  0  0  0  0  0  0  0  0  0  0  0
   29.7210    7.7780  -11.7740 N   0  0  0  0  0  0  0  0  0  0  0  0
   29.5140    9.1340  -12.0020 C   0  0  0  0  0  0  0  0  0  0  0  0
   27.1280    6.8940   -9.3150 O   0  0  0  0  0  0  0  0  0  0  0  0
   28.4890    9.8000  -11.3380 C   0  0  0  0  0  0  0  0  0  0  0  0
   27.6770    9.1100  -10.4470 C   0  0  0  0  0  0  0  0  0  0  0  0
   30.1580   10.0030  -12.8040 N   0  0  0  0  0  0  0  0  0  0  0  0
   29.5660   11.2410  -12.6810 C   0  0  0  0  0  0  0  0  0  0  0  0
   28.5490   10.9460  -11.7480 C   0  0  0  0  0  0  0  0  0  0  0  0
   26.2560    7.3670   -8.3260 C   0  0  0  0  0  0  0  0  0  0  0  0
   25.3720    8.3700   -8.6940 N   0  0  0  0  0  0  0  0  0  0  0  0
   24.6290    8.7130   -7.5780 N   0  0  0  0  0  0  0  0  0  0  0  0
   25.0270    7.9400   -6.5540 C   0  0  0  0  0  0  0  0  0  0  0  0
   25.9870    7.1230   -6.9910 C   0  0  0  0  0  0  0  0  0  0  0  0
   23.6200    9.7370   -7.6490 C   0  0  1  0  0  0  0  0  0  0  0  0
   23.5700   10.6510   -6.4850 C   0  0  0  0  0  0  0  0  0  0  0  0
   24.5600   11.6210   -6.4100 O   0  0  0  0  0  0  0  0  0  0  0  0
   22.6380   10.6210   -5.5130 N   0  0  0  0  0  0  0  0  0  0  0  0
   22.6990   11.5860   -4.4050 C   0  0  1  0  0  0  0  0  0  0  0  0
   22.5060   10.8760   -3.0780 C   0  0  1  0  0  0  0  0  0  0  0  0
   21.5020    9.7860   -3.7330 C   0  0  1  0  0  0  0  0  0  0  0  0
   21.6410    9.7600   -5.2060 C   0  0  1  0  0  0  0  0  0  0  0  0
   29.0738    6.0175  -10.7043 H   0  0  0  0  0  0  0  0  0  0  0  0
   30.4787    7.2835  -12.2662 H   0  0  0  0  0  0  0  0  0  0  0  0
   26.8679    9.6371   -9.9202 H   0  0  0  0  0  0  0  0  0  0  0  0
   29.8160   12.1928  -13.1724 H   0  0  0  0  0  0  0  0  0  0  0  0
   27.8420   11.7162  -11.4061 H   0  0  0  0  0  0  0  0  0  0  0  0
   24.6290    7.9747   -5.5291 H   0  0  0  0  0  0  0  0  0  0  0  0
   26.4928    6.3633   -6.3770 H   0  0  0  0  0  0  0  0  0  0  0  0
   23.8100   10.3409   -8.5486 H   0  0  0  0  0  0  0  0  0  0  0  0
   22.6528    9.2134   -7.6692 H   0  0  0  0  0  0  0  0  0  0  0  0
   23.6798   12.0840   -4.4110 H   0  0  0  0  0  0  0  0  0  0  0  0
   21.8985   12.3294   -4.5331 H   0  0  0  0  0  0  0  0  0  0  0  0
   23.4306   10.4365   -2.6756 H   0  0  0  0  0  0  0  0  0  0  0  0
   22.1727   11.4546   -2.2039 H   0  0  0  0  0  0  0  0  0  0  0  0
   21.7395    8.7900   -3.3310 H   0  0  0  0  0  0  0  0  0  0  0  0
   20.4679   10.0644   -3.4819 H   0  0  0  0  0  0  0  0  0  0  0  0
   20.7024   10.0802   -5.6820 H   0  0  0  0  0  0  0  0  0  0  0  0
   21.8665    8.7455   -5.5664 H   0  0  0  0  0  0  0  0  0  0  0  0
 11  5  1  0
 11 12  2  0
 11 15  1  0
 12 13  1  0
 13 16  1  0
 13 14  1  0
 14 15  2  0
  5  1  1  0
  1  2  2  0
  1  7  1  0
  2  3  1  0
  3  4  1  0
  4  8  2  0
  4  6  1  0
  6 10  1  0
  6  7  2  0
  8  9  1  0
  9 10  2  0
 16 17  1  0
 17 18  2  0
 17 19  1  0
 19 23  1  0
 19 20  1  0
 20 21  1  0
 21 22  1  0
 22 23  1  0
  2 24  1  0
  3 25  1  0
  7 26  1  0
  9 27  1  0
 10 28  1  0
 14 29  1  0
 15 30  1  0
 16 31  1  6
 16 32  1  0
 20 33  1  1
 20 34  1  0
 21 35  1  1
 21 36  1  0
 22 37  1  1
 22 38  1  0
 23 39  1  6
 23 40  1  0
M  END
>  <Pose ID>  (427)
546

>  <Score>  (427)
-5.594362258911133

>  <smiles>  (427)
O=C(Cn1ccc(Oc2c[nH]c3nccc-3c2)n1)N1CCCC1

$$$$

     RDKit          3D

 35 38  0  0  0  0  0  0  0  0999 V2000
   27.8180    7.8020  -10.3060 C   0  0  0  0  0  0  0  0  0  0  0  0
   28.7910    7.1010  -11.0060 C   0  0  0  0  0  0  0  0  0  0  0  0
   29.6540    7.7790  -11.8610 N   0  0  0  0  0  0  0  0  0  0  0  0
   29.5450    9.1560  -12.0110 C   0  0  0  0  0  0  0  0  0  0  0  0
   26.9980    6.9490   -9.4490 O   0  0  0  0  0  0  0  0  0  0  0  0
   28.5700    9.8570  -11.3090 C   0  0  0  0  0  0  0  0  0  0  0  0
   27.7080    9.1790  -10.4540 C   0  0  0  0  0  0  0  0  0  0  0  0
   30.2520   10.0210  -12.7650 N   0  0  0  0  0  0  0  0  0  0  0  0
   29.7500   11.2890  -12.5720 C   0  0  0  0  0  0  0  0  0  0  0  0
   28.7150   11.0170  -11.6520 C   0  0  0  0  0  0  0  0  0  0  0  0
   26.1610    7.4280   -8.4340 C   0  0  0  0  0  0  0  0  0  0  0  0
   25.3520    8.5100   -8.7410 N   0  0  0  0  0  0  0  0  0  0  0  0
   24.6770    8.8200   -7.6650 N   0  0  0  0  0  0  0  0  0  0  0  0
   24.9420    8.0100   -6.5670 C   0  0  0  0  0  0  0  0  0  0  0  0
   25.8730    7.1270   -7.1140 C   0  0  0  0  0  0  0  0  0  0  0  0
   23.7490    9.8490   -7.5600 C   0  0  0  0  0  0  0  0  0  0  0  0
   23.0880   10.0690   -6.3580 C   0  0  0  0  0  0  0  0  0  0  0  0
   23.3530    9.2590   -5.2600 C   0  0  0  0  0  0  0  0  0  0  0  0
   24.2810    8.2280   -5.3660 C   0  0  0  0  0  0  0  0  0  0  0  0
   22.6340    9.4980   -3.9550 C   0  0  1  0  0  0  0  0  0  0  0  0
   24.5700    7.3480   -4.1750 C   0  0  1  0  0  0  0  0  0  0  0  0
   28.8793    6.0113  -10.8847 H   0  0  0  0  0  0  0  0  0  0  0  0
   30.3742    7.2598  -12.3832 H   0  0  0  0  0  0  0  0  0  0  0  0
   26.9393    9.7328   -9.8950 H   0  0  0  0  0  0  0  0  0  0  0  0
   30.0671   12.2460  -13.0119 H   0  0  0  0  0  0  0  0  0  0  0  0
   28.0681   11.8166  -11.2620 H   0  0  0  0  0  0  0  0  0  0  0  0
   26.3250    6.2901   -6.5615 H   0  0  0  0  0  0  0  0  0  0  0  0
   23.5377   10.4896   -8.4289 H   0  0  0  0  0  0  0  0  0  0  0  0
   22.3546   10.8846   -6.2752 H   0  0  0  0  0  0  0  0  0  0  0  0
   23.3104    9.2732   -3.1172 H   0  0  0  0  0  0  0  0  0  0  0  0
   22.3171   10.5498   -3.8983 H   0  0  0  0  0  0  0  0  0  0  0  0
   21.7504    8.8452   -3.8983 H   0  0  0  0  0  0  0  0  0  0  0  0
   24.3848    7.9119   -3.2489 H   0  0  0  0  0  0  0  0  0  0  0  0
   23.9146    6.4650   -4.2039 H   0  0  0  0  0  0  0  0  0  0  0  0
   25.6213    7.0255   -4.2039 H   0  0  0  0  0  0  0  0  0  0  0  0
  5  1  1  0
  5 11  1  0
 11 12  2  0
 11 15  1  0
 12 13  1  0
 13 16  1  0
 13 14  1  0
 14 15  2  0
 14 19  1  0
 16 17  2  0
 17 18  1  0
 18 19  2  0
 18 20  1  0
 19 21  1  0
  1  2  2  0
  1  7  1  0
  2  3  1  0
  3  4  1  0
  4  8  2  0
  4  6  1  0
  6 10  1  0
  6  7  2  0
  8  9  1  0
  9 10  2  0
  2 22  1  0
  3 23  1  0
  7 24  1  0
  9 25  1  0
 10 26  1  0
 15 27  1  0
 16 28  1  0
 17 29  1  0
 20 30  1  1
 20 31  1  0
 20 32  1  0
 21 33  1  1
 21 34  1  0
 21 35  1  0
M  END
>  <Pose ID>  (428)
340

>  <Score>  (428)
-5.593934059143066

>  <smiles>  (428)
Cc1ccn2nc(Oc3c[nH]c4nccc-4c3)cc2c1C

$$$$

     RDKit          3D

 31 34  0  0  0  0  0  0  0  0999 V2000
   27.6300    8.0320  -10.2770 C   0  0  0  0  0  0  0  0  0  0  0  0
   28.5190    7.1770  -10.9150 C   0  0  0  0  0  0  0  0  0  0  0  0
   29.4770    7.6920  -11.7810 N   0  0  0  0  0  0  0  0  0  0  0  0
   29.5450    9.0610  -12.0090 C   0  0  0  0  0  0  0  0  0  0  0  0
   26.6930    7.3380   -9.3970 O   0  0  0  0  0  0  0  0  0  0  0  0
   28.6520    9.9170  -11.3700 C   0  0  0  0  0  0  0  0  0  0  0  0
   27.6970    9.4010  -10.5040 C   0  0  0  0  0  0  0  0  0  0  0  0
   30.3700    9.7870  -12.7890 N   0  0  0  0  0  0  0  0  0  0  0  0
   30.0280   11.1160  -12.6790 C   0  0  0  0  0  0  0  0  0  0  0  0
   28.9480   11.0280  -11.7720 C   0  0  0  0  0  0  0  0  0  0  0  0
   25.9040    7.9740   -8.4310 C   0  0  0  0  0  0  0  0  0  0  0  0
   25.2440    9.1290   -8.8180 N   0  0  0  0  0  0  0  0  0  0  0  0
   24.5910    9.5810   -7.7710 N   0  0  0  0  0  0  0  0  0  0  0  0
   24.7210    8.8090   -6.6230 C   0  0  0  0  0  0  0  0  0  0  0  0
   25.5550    7.7870   -7.1050 C   0  0  0  0  0  0  0  0  0  0  0  0
   23.8020   10.7250   -7.7530 C   0  0  0  0  0  0  0  0  0  0  0  0
   23.1450   11.0990   -6.5880 C   0  0  0  0  0  0  0  0  0  0  0  0
   23.2760   10.3280   -5.4390 C   0  0  0  0  0  0  0  0  0  0  0  0
   24.0630    9.1820   -5.4570 N   0  0  0  0  0  0  0  0  0  0  0  0
   26.0180    6.6180   -6.2710 C   0  0  1  0  0  0  0  0  0  0  0  0
   28.4653    6.0931  -10.7353 H   0  0  0  0  0  0  0  0  0  0  0  0
   30.1369    7.0582  -12.2540 H   0  0  0  0  0  0  0  0  0  0  0  0
   26.9927   10.0770   -9.9971 H   0  0  0  0  0  0  0  0  0  0  0  0
   30.4714   11.9992  -13.1620 H   0  0  0  0  0  0  0  0  0  0  0  0
   28.3991   11.9229  -11.4437 H   0  0  0  0  0  0  0  0  0  0  0  0
   23.6978   11.3349   -8.6625 H   0  0  0  0  0  0  0  0  0  0  0  0
   22.5213   12.0050   -6.5746 H   0  0  0  0  0  0  0  0  0  0  0  0
   22.7571   10.6245   -4.5155 H   0  0  0  0  0  0  0  0  0  0  0  0
   25.9194    6.8669   -5.2041 H   0  0  0  0  0  0  0  0  0  0  0  0
   25.4010    5.7367   -6.5004 H   0  0  0  0  0  0  0  0  0  0  0  0
   27.0711    6.3981   -6.5004 H   0  0  0  0  0  0  0  0  0  0  0  0
  5  1  1  0
  5 11  1  0
  1  2  2  0
  1  7  1  0
  2  3  1  0
  3  4  1  0
  4  8  2  0
  4  6  1  0
  6 10  1  0
  6  7  2  0
  8  9  1  0
  9 10  2  0
 11 12  2  0
 11 15  1  0
 12 13  1  0
 13 16  1  0
 13 14  1  0
 14 15  2  0
 14 19  1  0
 15 20  1  0
 16 17  2  0
 17 18  1  0
 18 19  2  0
  2 21  1  0
  3 22  1  0
  7 23  1  0
  9 24  1  0
 10 25  1  0
 16 26  1  0
 17 27  1  0
 18 28  1  0
 20 29  1  1
 20 30  1  0
 20 31  1  0
M  END
>  <Pose ID>  (429)
357

>  <Score>  (429)
-5.592732906341553

>  <smiles>  (429)
Cc1c(Oc2c[nH]c3nccc-3c2)nn2cccnc12

$$$$

     RDKit          3D

 37 40  0  0  0  0  0  0  0  0999 V2000
   27.9400    7.8550  -10.3560 C   0  0  0  0  0  0  0  0  0  0  0  0
   28.9000    7.1280  -11.0490 C   0  0  0  0  0  0  0  0  0  0  0  0
   29.7740    7.7780  -11.9110 N   0  0  0  0  0  0  0  0  0  0  0  0
   29.6900    9.1550  -12.0800 C   0  0  0  0  0  0  0  0  0  0  0  0
   27.1060    7.0280   -9.4860 O   0  0  0  0  0  0  0  0  0  0  0  0
   28.7290    9.8830  -11.3860 C   0  0  0  0  0  0  0  0  0  0  0  0
   27.8550    9.2310  -10.5230 C   0  0  0  0  0  0  0  0  0  0  0  0
   30.4110    9.9970  -12.8450 N   0  0  0  0  0  0  0  0  0  0  0  0
   29.9340   11.2760  -12.6690 C   0  0  0  0  0  0  0  0  0  0  0  0
   28.8940   11.0350  -11.7460 C   0  0  0  0  0  0  0  0  0  0  0  0
   26.2790    7.5350   -8.4780 C   0  0  0  0  0  0  0  0  0  0  0  0
   25.4910    8.6280   -8.7970 N   0  0  0  0  0  0  0  0  0  0  0  0
   24.8110    8.9650   -7.6930 N   0  0  0  0  0  0  0  0  0  0  0  0
   25.0990    8.1120   -6.6360 C   0  0  0  0  0  0  0  0  0  0  0  0
   25.9870    7.2580   -7.1550 C   0  0  0  0  0  0  0  0  0  0  0  0
   23.8970    9.9980   -7.5240 C   0  0  0  0  0  0  0  0  0  0  0  0
   23.2720   10.1770   -6.2950 N   0  0  0  0  0  0  0  0  0  0  0  0
   23.5590    9.3230   -5.2370 C   0  0  0  0  0  0  0  0  0  0  0  0
   24.4740    8.2910   -5.4070 C   0  0  0  0  0  0  0  0  0  0  0  0
   30.3940   12.5720  -13.2890 C   0  0  1  0  0  0  0  0  0  0  0  0
   29.1950   13.3670  -13.8470 C   0  0  1  0  0  0  0  0  0  0  0  0
   22.8790    9.5170   -3.9050 C   0  0  1  0  0  0  0  0  0  0  0  0
   28.9679    6.0383  -10.9151 H   0  0  0  0  0  0  0  0  0  0  0  0
   30.4851    7.2390  -12.4255 H   0  0  0  0  0  0  0  0  0  0  0  0
   27.0958    9.8056   -9.9722 H   0  0  0  0  0  0  0  0  0  0  0  0
   28.2605   11.8512  -11.3684 H   0  0  0  0  0  0  0  0  0  0  0  0
   26.4359    6.4266   -6.5917 H   0  0  0  0  0  0  0  0  0  0  0  0
   23.6682   10.6733   -8.3616 H   0  0  0  0  0  0  0  0  0  0  0  0
   24.7037    7.6159   -4.5695 H   0  0  0  0  0  0  0  0  0  0  0  0
   30.9037   13.1768  -12.5245 H   0  0  0  0  0  0  0  0  0  0  0  0
   31.0817   12.3431  -14.1164 H   0  0  0  0  0  0  0  0  0  0  0  0
   28.5975   13.7632  -13.0127 H   0  0  0  0  0  0  0  0  0  0  0  0
   29.5627   14.2008  -14.4630 H   0  0  0  0  0  0  0  0  0  0  0  0
   28.5700   12.7037  -14.4630 H   0  0  0  0  0  0  0  0  0  0  0  0
   23.5945    9.3129   -3.0949 H   0  0  0  0  0  0  0  0  0  0  0  0
   22.5196   10.5535   -3.8243 H   0  0  0  0  0  0  0  0  0  0  0  0
   22.0268    8.8261   -3.8243 H   0  0  0  0  0  0  0  0  0  0  0  0
  1  2  2  0
  1  7  1  0
  1  5  1  0
  2  3  1  0
  3  4  1  0
  4  8  2  0
  4  6  1  0
  6 10  1  0
  6  7  2  0
  8  9  1  0
  9 20  1  0
  9 10  2  0
 20 21  1  0
  5 11  1  0
 11 12  2  0
 11 15  1  0
 12 13  1  0
 13 16  1  0
 13 14  1  0
 14 15  2  0
 14 19  1  0
 16 17  2  0
 17 18  1  0
 18 19  2  0
 18 22  1  0
  2 23  1  0
  3 24  1  0
  7 25  1  0
 10 26  1  0
 15 27  1  0
 16 28  1  0
 19 29  1  0
 20 30  1  1
 20 31  1  0
 21 32  1  1
 21 33  1  0
 21 34  1  0
 22 35  1  1
 22 36  1  0
 22 37  1  0
M  END
>  <Pose ID>  (430)
286

>  <Score>  (430)
-5.590607166290283

>  <smiles>  (430)
CCc1cc2cc(Oc3cc4cc(C)ncn4n3)c[nH]c-2n1

$$$$

     RDKit          3D

 36 39  0  0  0  0  0  0  0  0999 V2000
   27.9820    7.9050  -10.4740 C   0  0  0  0  0  0  0  0  0  0  0  0
   28.8080    7.1060  -11.2540 C   0  0  0  0  0  0  0  0  0  0  0  0
   29.7210    7.6880  -12.1220 N   0  0  0  0  0  0  0  0  0  0  0  0
   29.8110    9.0720  -12.2100 C   0  0  0  0  0  0  0  0  0  0  0  0
   27.0870    7.1400   -9.6100 O   0  0  0  0  0  0  0  0  0  0  0  0
   28.9840    9.8730  -11.4290 C   0  0  0  0  0  0  0  0  0  0  0  0
   28.0720    9.2880  -10.5600 C   0  0  0  0  0  0  0  0  0  0  0  0
   30.6030    9.8590  -12.9620 N   0  0  0  0  0  0  0  0  0  0  0  0
   30.3050   11.1780  -12.6920 C   0  0  0  0  0  0  0  0  0  0  0  0
   29.2830   11.0150  -11.7320 C   0  0  0  0  0  0  0  0  0  0  0  0
   26.3770    7.6850   -8.5330 C   0  0  0  0  0  0  0  0  0  0  0  0
   25.7260    8.8880   -8.7540 N   0  0  0  0  0  0  0  0  0  0  0  0
   25.1180    9.2650   -7.5700 N   0  0  0  0  0  0  0  0  0  0  0  0
   25.3700    8.3260   -6.6460 C   0  0  0  0  0  0  0  0  0  0  0  0
   26.1070    7.3660   -7.2140 C   0  0  0  0  0  0  0  0  0  0  0  0
   24.4580   10.3320   -7.3990 C   0  0  0  0  0  0  0  0  0  0  0  0
   24.3670   11.0810   -8.5660 C   0  0  0  0  0  0  0  0  0  0  0  0
   23.6380   12.2650   -8.5760 C   0  0  0  0  0  0  0  0  0  0  0  0
   23.8210   10.7670   -6.2430 C   0  0  0  0  0  0  0  0  0  0  0  0
   23.0020   12.6990   -7.4200 C   0  0  0  0  0  0  0  0  0  0  0  0
   23.0410   11.9550   -6.2930 N   0  0  0  0  0  0  0  0  0  0  0  0
   23.9310   10.1270   -5.1810 O   0  0  0  0  0  0  0  0  0  0  0  0
   28.5910   12.2020  -11.1090 C   0  0  1  0  0  0  0  0  0  0  0  0
   28.7384    6.0105  -11.1836 H   0  0  0  0  0  0  0  0  0  0  0  0
   30.3319    7.0943  -12.7010 H   0  0  0  0  0  0  0  0  0  0  0  0
   27.4205    9.9208   -9.9394 H   0  0  0  0  0  0  0  0  0  0  0  0
   30.7410   12.0983  -13.1078 H   0  0  0  0  0  0  0  0  0  0  0  0
   25.0288    8.3429   -5.6004 H   0  0  0  0  0  0  0  0  0  0  0  0
   26.4498    6.4529   -6.7053 H   0  0  0  0  0  0  0  0  0  0  0  0
   24.8713   10.7374   -9.4812 H   0  0  0  0  0  0  0  0  0  0  0  0
   23.5650   12.8580   -9.4996 H   0  0  0  0  0  0  0  0  0  0  0  0
   22.4617   13.6571   -7.4221 H   0  0  0  0  0  0  0  0  0  0  0  0
   22.5030   12.2498   -5.4657 H   0  0  0  0  0  0  0  0  0  0  0  0
   28.6385   12.1205  -10.0131 H   0  0  0  0  0  0  0  0  0  0  0  0
   29.0909   13.1278  -11.4298 H   0  0  0  0  0  0  0  0  0  0  0  0
   27.5390   12.2231  -11.4298 H   0  0  0  0  0  0  0  0  0  0  0  0
 11  5  1  0
 11 12  2  0
 11 15  1  0
 12 13  1  0
 13 16  1  0
 13 14  1  0
 14 15  2  0
 16 17  2  0
 16 19  1  0
 17 18  1  0
 18 20  2  0
 19 21  1  0
 19 22  2  0
 20 21  1  0
  5  1  1  0
  1  2  2  0
  1  7  1  0
  2  3  1  0
  3  4  1  0
  4  8  2  0
  4  6  1  0
  6 10  1  0
  6  7  2  0
  8  9  1  0
  9 10  2  0
 10 23  1  0
  2 24  1  0
  3 25  1  0
  7 26  1  0
  9 27  1  0
 14 28  1  0
 15 29  1  0
 17 30  1  0
 18 31  1  0
 20 32  1  0
 21 33  1  0
 23 34  1  1
 23 35  1  0
 23 36  1  0
M  END
>  <Pose ID>  (431)
419

>  <Score>  (431)
-5.5897603034973145

>  <smiles>  (431)
Cc1cnc2[nH]cc(Oc3ccn(-c4ccc[nH]c4=O)n3)cc1-2

$$$$

     RDKit          3D

 36 39  0  0  0  0  0  0  0  0999 V2000
   27.2280    8.2880  -10.2400 C   0  0  0  0  0  0  0  0  0  0  0  0
   27.9340    7.3170  -10.9380 C   0  0  0  0  0  0  0  0  0  0  0  0
   28.9680    7.6840  -11.7880 N   0  0  0  0  0  0  0  0  0  0  0  0
   29.2990    9.0260  -11.9390 C   0  0  0  0  0  0  0  0  0  0  0  0
   26.1810    7.7370   -9.3840 O   0  0  0  0  0  0  0  0  0  0  0  0
   28.5930    9.9990  -11.2400 C   0  0  0  0  0  0  0  0  0  0  0  0
   27.5590    9.6280  -10.3890 C   0  0  0  0  0  0  0  0  0  0  0  0
   30.2450    9.6220  -12.6890 N   0  0  0  0  0  0  0  0  0  0  0  0
   30.1690   10.9860  -12.4990 C   0  0  0  0  0  0  0  0  0  0  0  0
   29.0960   11.0540  -11.5840 C   0  0  0  0  0  0  0  0  0  0  0  0
   25.5330    8.4560   -8.3710 C   0  0  0  0  0  0  0  0  0  0  0  0
   25.1090    9.7370   -8.6830 N   0  0  0  0  0  0  0  0  0  0  0  0
   24.5290   10.2790   -7.5500 N   0  0  0  0  0  0  0  0  0  0  0  0
   24.5780    9.3650   -6.5700 C   0  0  0  0  0  0  0  0  0  0  0  0
   25.1600    8.2630   -7.0530 C   0  0  0  0  0  0  0  0  0  0  0  0
   24.0570   11.4510   -7.4640 C   0  0  0  0  0  0  0  0  0  0  0  0
   24.1440   12.1370   -8.6700 C   0  0  0  0  0  0  0  0  0  0  0  0
   23.6310   13.4260   -8.7740 C   0  0  0  0  0  0  0  0  0  0  0  0
   23.4590   12.0530   -6.3640 C   0  0  0  0  0  0  0  0  0  0  0  0
   23.0340   14.0270   -7.6730 C   0  0  0  0  0  0  0  0  0  0  0  0
   22.8990   13.3520   -6.5100 N   0  0  0  0  0  0  0  0  0  0  0  0
   23.4150   11.4650   -5.2670 O   0  0  0  0  0  0  0  0  0  0  0  0
   25.3780    6.9910   -6.2720 C   0  0  1  0  0  0  0  0  0  0  0  0
   27.6733    6.2552  -10.8170 H   0  0  0  0  0  0  0  0  0  0  0  0
   29.4897    6.9629  -12.3065 H   0  0  0  0  0  0  0  0  0  0  0  0
   27.0023   10.3967   -9.8330 H   0  0  0  0  0  0  0  0  0  0  0  0
   30.7741   11.7935  -12.9370 H   0  0  0  0  0  0  0  0  0  0  0  0
   28.7302   12.0172  -11.1986 H   0  0  0  0  0  0  0  0  0  0  0  0
   24.2034    9.4992   -5.5445 H   0  0  0  0  0  0  0  0  0  0  0  0
   24.6180   11.6611   -9.5411 H   0  0  0  0  0  0  0  0  0  0  0  0
   23.6981   13.9693   -9.7281 H   0  0  0  0  0  0  0  0  0  0  0  0
   22.6679   15.0615   -7.7485 H   0  0  0  0  0  0  0  0  0  0  0  0
   22.3878   13.7807   -5.7252 H   0  0  0  0  0  0  0  0  0  0  0  0
   25.3403    7.2110   -5.1949 H   0  0  0  0  0  0  0  0  0  0  0  0
   24.5911    6.2655   -6.5258 H   0  0  0  0  0  0  0  0  0  0  0  0
   26.3616    6.5689   -6.5258 H   0  0  0  0  0  0  0  0  0  0  0  0
 11  5  1  0
 11 12  2  0
 11 15  1  0
 12 13  1  0
 13 16  1  0
 13 14  1  0
 14 15  2  0
 15 23  1  0
 16 17  2  0
 16 19  1  0
 17 18  1  0
 18 20  2  0
 19 21  1  0
 19 22  2  0
 20 21  1  0
  5  1  1  0
  1  2  2  0
  1  7  1  0
  2  3  1  0
  3  4  1  0
  4  8  2  0
  4  6  1  0
  6 10  1  0
  6  7  2  0
  8  9  1  0
  9 10  2  0
  2 24  1  0
  3 25  1  0
  7 26  1  0
  9 27  1  0
 10 28  1  0
 14 29  1  0
 17 30  1  0
 18 31  1  0
 20 32  1  0
 21 33  1  0
 23 34  1  1
 23 35  1  0
 23 36  1  0
M  END
>  <Pose ID>  (432)
420

>  <Score>  (432)
-5.589202404022217

>  <smiles>  (432)
Cc1cn(-c2ccc[nH]c2=O)nc1Oc1c[nH]c2nccc-2c1

$$$$

     RDKit          3D

 38 41  0  0  0  0  0  0  0  0999 V2000
   27.1450    8.5510  -10.2710 C   0  0  0  0  0  0  0  0  0  0  0  0
   27.8410    7.4970  -10.8420 C   0  0  0  0  0  0  0  0  0  0  0  0
   28.9130    7.7490  -11.6920 N   0  0  0  0  0  0  0  0  0  0  0  0
   29.2860    9.0590  -11.9700 C   0  0  0  0  0  0  0  0  0  0  0  0
   26.0560    8.1180   -9.4000 O   0  0  0  0  0  0  0  0  0  0  0  0
   28.5840   10.1180  -11.4000 C   0  0  0  0  0  0  0  0  0  0  0  0
   27.5140    9.8610  -10.5510 C   0  0  0  0  0  0  0  0  0  0  0  0
   30.2690    9.5520  -12.7480 N   0  0  0  0  0  0  0  0  0  0  0  0
   30.2230   10.9260  -12.7030 C   0  0  0  0  0  0  0  0  0  0  0  0
   29.1250   11.1170  -11.8330 C   0  0  0  0  0  0  0  0  0  0  0  0
   25.3960    8.9540   -8.4900 C   0  0  0  0  0  0  0  0  0  0  0  0
   25.0180   10.2070   -8.9440 N   0  0  0  0  0  0  0  0  0  0  0  0
   24.4190   10.8770   -7.8950 N   0  0  0  0  0  0  0  0  0  0  0  0
   24.4120   10.0700   -6.8240 C   0  0  0  0  0  0  0  0  0  0  0  0
   24.9800    8.9100   -7.1720 C   0  0  0  0  0  0  0  0  0  0  0  0
   23.9160   12.0770   -7.9170 C   0  0  0  0  0  0  0  0  0  0  0  0
   23.3090   12.4990   -6.7400 N   0  0  0  0  0  0  0  0  0  0  0  0
   24.1740   12.9900   -8.9330 C   0  0  0  0  0  0  0  0  0  0  0  0
   23.8240   14.3260   -8.7710 C   0  0  0  0  0  0  0  0  0  0  0  0
   22.9580   13.8340   -6.5790 C   0  0  0  0  0  0  0  0  0  0  0  0
   23.2050   14.7250   -7.5810 C   0  0  0  0  0  0  0  0  0  0  0  0
   22.3080   14.2970   -5.3000 C   0  0  1  0  0  0  0  0  0  0  0  0
   25.1430    7.7210   -6.2560 C   0  0  1  0  0  0  0  0  0  0  0  0
   27.5454    6.4604  -10.6228 H   0  0  0  0  0  0  0  0  0  0  0  0
   29.4302    6.9652  -12.1152 H   0  0  0  0  0  0  0  0  0  0  0  0
   26.9582   10.6962  -10.0999 H   0  0  0  0  0  0  0  0  0  0  0  0
   30.8617   11.6685  -13.2038 H   0  0  0  0  0  0  0  0  0  0  0  0
   28.7760   12.1239  -11.5602 H   0  0  0  0  0  0  0  0  0  0  0  0
   24.0090   10.3189   -5.8312 H   0  0  0  0  0  0  0  0  0  0  0  0
   24.6546   12.6559   -9.8643 H   0  0  0  0  0  0  0  0  0  0  0  0
   24.0305   15.0578   -9.5659 H   0  0  0  0  0  0  0  0  0  0  0  0
   22.9122   15.7774   -7.4516 H   0  0  0  0  0  0  0  0  0  0  0  0
   22.8666   13.8991   -4.4399 H   0  0  0  0  0  0  0  0  0  0  0  0
   22.3127   15.3964   -5.2634 H   0  0  0  0  0  0  0  0  0  0  0  0
   21.2705   13.9333   -5.2634 H   0  0  0  0  0  0  0  0  0  0  0  0
   25.0971    8.0556   -5.2091 H   0  0  0  0  0  0  0  0  0  0  0  0
   24.3355    6.9985   -6.4457 H   0  0  0  0  0  0  0  0  0  0  0  0
   26.1151    7.2425   -6.4457 H   0  0  0  0  0  0  0  0  0  0  0  0
 11  5  1  0
 11 12  2  0
 11 15  1  0
 12 13  1  0
 13 16  1  0
 13 14  1  0
 14 15  2  0
 15 23  1  0
 16 18  1  0
 16 17  2  0
 17 20  1  0
 18 19  2  0
 19 21  1  0
 20 21  2  0
 20 22  1  0
  5  1  1  0
  1  2  2  0
  1  7  1  0
  2  3  1  0
  3  4  1  0
  4  8  2  0
  4  6  1  0
  6 10  1  0
  6  7  2  0
  8  9  1  0
  9 10  2  0
  2 24  1  0
  3 25  1  0
  7 26  1  0
  9 27  1  0
 10 28  1  0
 14 29  1  0
 18 30  1  0
 19 31  1  0
 21 32  1  0
 22 33  1  1
 22 34  1  0
 22 35  1  0
 23 36  1  1
 23 37  1  0
 23 38  1  0
M  END
>  <Pose ID>  (433)
315

>  <Score>  (433)
-5.588904857635498

>  <smiles>  (433)
Cc1cccc(-n2cc(C)c(Oc3c[nH]c4nccc-4c3)n2)n1

$$$$

     RDKit          3D

 38 41  0  0  0  0  0  0  0  0999 V2000
   27.0250    8.1980  -10.0060 C   0  0  0  0  0  0  0  0  0  0  0  0
   27.7180    7.1960  -10.6720 C   0  0  0  0  0  0  0  0  0  0  0  0
   28.7370    7.5280  -11.5580 N   0  0  0  0  0  0  0  0  0  0  0  0
   29.0640    8.8600  -11.7760 C   0  0  0  0  0  0  0  0  0  0  0  0
   25.9960    7.6860   -9.1070 O   0  0  0  0  0  0  0  0  0  0  0  0
   28.3700    9.8650  -11.1080 C   0  0  0  0  0  0  0  0  0  0  0  0
   27.3520    9.5310  -10.2210 C   0  0  0  0  0  0  0  0  0  0  0  0
   29.9950    9.4230  -12.5710 N   0  0  0  0  0  0  0  0  0  0  0  0
   29.9220   10.7910  -12.4400 C   0  0  0  0  0  0  0  0  0  0  0  0
   28.8660   10.9010  -11.5090 C   0  0  0  0  0  0  0  0  0  0  0  0
   25.3670    8.4490   -8.1150 C   0  0  0  0  0  0  0  0  0  0  0  0
   24.9360    9.7170   -8.4750 N   0  0  0  0  0  0  0  0  0  0  0  0
   24.3750   10.3080   -7.3580 N   0  0  0  0  0  0  0  0  0  0  0  0
   24.4440    9.4380   -6.3400 C   0  0  0  0  0  0  0  0  0  0  0  0
   25.0190    8.3160   -6.7830 C   0  0  0  0  0  0  0  0  0  0  0  0
   23.8460   11.5430   -7.3280 C   0  0  0  0  0  0  0  0  0  0  0  0
   24.0020   12.0560   -8.6100 C   0  0  0  0  0  0  0  0  0  0  0  0
   23.7350   13.3970   -8.8590 C   0  0  0  0  0  0  0  0  0  0  0  0
   23.4240   12.3720   -6.2960 C   0  0  0  0  0  0  0  0  0  0  0  0
   23.1570   13.7130   -6.5440 N   0  0  0  0  0  0  0  0  0  0  0  0
   23.3130   14.2250   -7.8260 C   0  0  0  0  0  0  0  0  0  0  0  0
   25.2550    7.0810   -5.9490 C   0  0  1  0  0  0  0  0  0  0  0  0
   30.7410   11.8710  -13.1050 C   0  0  1  0  0  0  0  0  0  0  0  0
   27.4612    6.1405  -10.4989 H   0  0  0  0  0  0  0  0  0  0  0  0
   29.2501    6.7849  -12.0534 H   0  0  0  0  0  0  0  0  0  0  0  0
   26.8051   10.3234   -9.6890 H   0  0  0  0  0  0  0  0  0  0  0  0
   28.5073   11.8811  -11.1614 H   0  0  0  0  0  0  0  0  0  0  0  0
   24.0879    9.6173   -5.3148 H   0  0  0  0  0  0  0  0  0  0  0  0
   24.3368   11.4008   -9.4277 H   0  0  0  0  0  0  0  0  0  0  0  0
   23.8578   13.8029   -9.8740 H   0  0  0  0  0  0  0  0  0  0  0  0
   23.3010   11.9662   -5.2810 H   0  0  0  0  0  0  0  0  0  0  0  0
   23.1023   15.2864   -8.0234 H   0  0  0  0  0  0  0  0  0  0  0  0
   25.2048    7.3439   -4.8821 H   0  0  0  0  0  0  0  0  0  0  0  0
   24.4840    6.3308   -6.1784 H   0  0  0  0  0  0  0  0  0  0  0  0
   26.2483    6.6679   -6.1784 H   0  0  0  0  0  0  0  0  0  0  0  0
   31.2159   12.4973  -12.3354 H   0  0  0  0  0  0  0  0  0  0  0  0
   31.5175   11.4086  -13.7320 H   0  0  0  0  0  0  0  0  0  0  0  0
   30.0863   12.4940  -13.7320 H   0  0  0  0  0  0  0  0  0  0  0  0
  5  1  1  0
  5 11  1  0
  1  2  2  0
  1  7  1  0
  2  3  1  0
  3  4  1  0
  4  8  2  0
  4  6  1  0
  6 10  1  0
  6  7  2  0
  8  9  1  0
  9 23  1  0
  9 10  2  0
 11 12  2  0
 11 15  1  0
 12 13  1  0
 13 16  1  0
 13 14  1  0
 14 15  2  0
 15 22  1  0
 16 17  2  0
 16 19  1  0
 17 18  1  0
 18 21  2  0
 19 20  2  0
 20 21  1  0
  2 24  1  0
  3 25  1  0
  7 26  1  0
 10 27  1  0
 14 28  1  0
 17 29  1  0
 18 30  1  0
 19 31  1  0
 21 32  1  0
 22 33  1  1
 22 34  1  0
 22 35  1  0
 23 36  1  1
 23 37  1  0
 23 38  1  0
M  END
>  <Pose ID>  (434)
436

>  <Score>  (434)
-5.586800575256348

>  <smiles>  (434)
Cc1cc2cc(Oc3nn(-c4cccnc4)cc3C)c[nH]c-2n1

$$$$

     RDKit          3D

 35 38  0  0  0  0  0  0  0  0999 V2000
   27.4680    7.7180   -9.7660 C   0  0  0  0  0  0  0  0  0  0  0  0
   26.7100    6.7740   -9.0830 N   0  0  0  0  0  0  0  0  0  0  0  0
   26.0270    7.1370   -7.9290 C   0  0  0  0  0  0  0  0  0  0  0  0
   25.3380    6.1350   -7.3010 C   0  0  0  0  0  0  0  0  0  0  0  0
   24.6100    6.3910   -6.1470 N   0  0  0  0  0  0  0  0  0  0  0  0
   24.5820    7.6700   -5.6090 C   0  0  0  0  0  0  0  0  0  0  0  0
   25.2880    8.6990   -6.2250 C   0  0  0  0  0  0  0  0  0  0  0  0
   26.1010    8.4410   -7.4570 C   0  0  0  0  0  0  0  0  0  0  0  0
   27.5430    9.0240   -9.2940 C   0  0  0  0  0  0  0  0  0  0  0  0
   26.8580    9.3850   -8.1400 C   0  0  0  0  0  0  0  0  0  0  0  0
   28.2200    7.6090  -10.9090 N   0  0  0  0  0  0  0  0  0  0  0  0
   28.9400    8.4590  -11.5300 C   0  0  0  0  0  0  0  0  0  0  0  0
   30.3310    8.4070  -11.7260 N   0  0  0  0  0  0  0  0  0  0  0  0
   30.6480    9.5120  -12.4090 O   0  0  0  0  0  0  0  0  0  0  0  0
   29.6120   10.2290  -12.6620 C   0  0  0  0  0  0  0  0  0  0  0  0
   28.4920    9.5740  -12.1510 C   0  0  0  0  0  0  0  0  0  0  0  0
   23.8430    7.9250   -4.4390 C   0  0  0  0  0  0  0  0  0  0  0  0
   23.1310    7.1690   -3.6450 N   0  0  0  0  0  0  0  0  0  0  0  0
   22.6170    7.9150   -2.6570 C   0  0  0  0  0  0  0  0  0  0  0  0
   23.8230    9.2070   -3.9080 C   0  0  0  0  0  0  0  0  0  0  0  0
   23.1300    9.3060   -2.8790 C   0  0  0  0  0  0  0  0  0  0  0  0
   22.8670   10.5380   -2.0480 C   0  0  1  0  0  0  0  0  0  0  0  0
   25.3613    5.1161   -7.7150 H   0  0  0  0  0  0  0  0  0  0  0  0
   25.2488    9.7138   -5.8025 H   0  0  0  0  0  0  0  0  0  0  0  0
   28.1440    9.7707   -9.8337 H   0  0  0  0  0  0  0  0  0  0  0  0
   26.9151   10.4183   -7.7672 H   0  0  0  0  0  0  0  0  0  0  0  0
   28.1991    6.6748  -11.3422 H   0  0  0  0  0  0  0  0  0  0  0  0
   29.6092   11.1936  -13.1907 H   0  0  0  0  0  0  0  0  0  0  0  0
   27.4453    9.9012  -12.2365 H   0  0  0  0  0  0  0  0  0  0  0  0
   22.9871    6.1557   -3.7608 H   0  0  0  0  0  0  0  0  0  0  0  0
   21.9537    7.5755   -1.8479 H   0  0  0  0  0  0  0  0  0  0  0  0
   24.3667   10.0533   -4.3532 H   0  0  0  0  0  0  0  0  0  0  0  0
   22.9223   10.2788   -0.9804 H   0  0  0  0  0  0  0  0  0  0  0  0
   23.6218   11.3041   -2.2790 H   0  0  0  0  0  0  0  0  0  0  0  0
   21.8651   10.9291   -2.2790 H   0  0  0  0  0  0  0  0  0  0  0  0
  1 11  1  0
  1  9  1  0
  1  2  2  0
  2  3  1  0
  3  8  2  0
  3  4  1  0
  4  5  2  0
  5  6  1  0
  6  7  2  0
  6 17  1  0
  7  8  1  0
  8 10  1  0
  9 10  2  0
 11 12  1  0
 12 16  1  0
 12 13  2  0
 13 14  1  0
 14 15  1  0
 15 16  2  0
 17 20  2  0
 17 18  1  0
 18 19  1  0
 19 21  2  0
 20 21  1  0
 21 22  1  0
  4 23  1  0
  7 24  1  0
  9 25  1  0
 10 26  1  0
 11 27  1  0
 15 28  1  0
 16 29  1  0
 18 30  1  0
 19 31  1  0
 20 32  1  0
 22 33  1  1
 22 34  1  0
 22 35  1  0
M  END
>  <Pose ID>  (435)
32

>  <Score>  (435)
-5.5863823890686035

>  <smiles>  (435)
Cc1c[nH]c(-c2cc3ccc(Nc4ccon4)nc3cn2)c1

$$$$

     RDKit          3D

 37 40  0  0  0  0  0  0  0  0999 V2000
   27.7090    8.0570  -10.3170 C   0  0  0  0  0  0  0  0  0  0  0  0
   28.6270    7.1900  -10.9010 C   0  0  0  0  0  0  0  0  0  0  0  0
   29.6030    7.6850  -11.7550 N   0  0  0  0  0  0  0  0  0  0  0  0
   29.6670    9.0470  -12.0270 C   0  0  0  0  0  0  0  0  0  0  0  0
   26.7550    7.3820   -9.4420 O   0  0  0  0  0  0  0  0  0  0  0  0
   28.7470    9.9140  -11.4450 C   0  0  0  0  0  0  0  0  0  0  0  0
   27.7710    9.4180  -10.5890 C   0  0  0  0  0  0  0  0  0  0  0  0
   30.5060    9.7540  -12.8070 N   0  0  0  0  0  0  0  0  0  0  0  0
   30.1500   11.0830  -12.7520 C   0  0  0  0  0  0  0  0  0  0  0  0
   29.0440   11.0140  -11.8760 C   0  0  0  0  0  0  0  0  0  0  0  0
   25.9310    8.0430   -8.5230 C   0  0  0  0  0  0  0  0  0  0  0  0
   25.2740    9.1780   -8.9660 N   0  0  0  0  0  0  0  0  0  0  0  0
   24.5740    9.6620   -7.9310 N   0  0  0  0  0  0  0  0  0  0  0  0
   24.7220    8.8700   -6.7990 C   0  0  0  0  0  0  0  0  0  0  0  0
   25.5470    7.8970   -7.2020 C   0  0  0  0  0  0  0  0  0  0  0  0
   23.7600   10.7870   -7.8890 C   0  0  0  0  0  0  0  0  0  0  0  0
   23.0930   11.1200   -6.7160 N   0  0  0  0  0  0  0  0  0  0  0  0
   23.2410   10.3270   -5.5840 C   0  0  0  0  0  0  0  0  0  0  0  0
   24.0560    9.2020   -5.6250 C   0  0  0  0  0  0  0  0  0  0  0  0
   22.5170   10.6880   -4.3100 C   0  0  1  0  0  0  0  0  0  0  0  0
   28.2660   12.2480  -11.4900 C   0  0  1  0  0  0  0  0  0  0  0  0
   26.0060    6.7670   -6.3140 C   0  0  1  0  0  0  0  0  0  0  0  0
   28.5794    6.1123  -10.6860 H   0  0  0  0  0  0  0  0  0  0  0  0
   30.2812    7.0420  -12.1881 H   0  0  0  0  0  0  0  0  0  0  0  0
   27.0464   10.1041  -10.1261 H   0  0  0  0  0  0  0  0  0  0  0  0
   30.6005   11.9540  -13.2504 H   0  0  0  0  0  0  0  0  0  0  0  0
   23.6433   11.4147   -8.7848 H   0  0  0  0  0  0  0  0  0  0  0  0
   24.1739    8.5748   -4.7291 H   0  0  0  0  0  0  0  0  0  0  0  0
   23.1246   10.3850   -3.4445 H   0  0  0  0  0  0  0  0  0  0  0  0
   22.3501   11.7748   -4.2784 H   0  0  0  0  0  0  0  0  0  0  0  0
   21.5486   10.1673   -4.2784 H   0  0  0  0  0  0  0  0  0  0  0  0
   28.2184   12.3234  -10.3936 H   0  0  0  0  0  0  0  0  0  0  0  0
   28.7660   13.1391  -11.8975 H   0  0  0  0  0  0  0  0  0  0  0  0
   27.2465   12.1811  -11.8975 H   0  0  0  0  0  0  0  0  0  0  0  0
   25.8878    7.0579   -5.2598 H   0  0  0  0  0  0  0  0  0  0  0  0
   25.4003    5.8716   -6.5174 H   0  0  0  0  0  0  0  0  0  0  0  0
   27.0645    6.5476   -6.5174 H   0  0  0  0  0  0  0  0  0  0  0  0
  5  1  1  0
  5 11  1  0
  1  2  2  0
  1  7  1  0
  2  3  1  0
  3  4  1  0
  4  8  2  0
  4  6  1  0
  6 10  1  0
  6  7  2  0
  8  9  1  0
  9 10  2  0
 10 21  1  0
 11 12  2  0
 11 15  1  0
 12 13  1  0
 13 16  1  0
 13 14  1  0
 14 15  2  0
 14 19  1  0
 15 22  1  0
 16 17  2  0
 17 18  1  0
 18 19  2  0
 18 20  1  0
  2 23  1  0
  3 24  1  0
  7 25  1  0
  9 26  1  0
 16 27  1  0
 19 28  1  0
 20 29  1  1
 20 30  1  0
 20 31  1  0
 21 32  1  1
 21 33  1  0
 21 34  1  0
 22 35  1  1
 22 36  1  0
 22 37  1  0
M  END
>  <Pose ID>  (436)
305

>  <Score>  (436)
-5.580002307891846

>  <smiles>  (436)
Cc1cc2c(C)c(Oc3c[nH]c4ncc(C)c-4c3)nn2cn1

$$$$

     RDKit          3D

 34 36  0  0  0  0  0  0  0  0999 V2000
   25.9870    9.6580   -8.2850 C   0  0  0  0  0  0  0  0  0  0  0  0
   25.6000   11.0020   -8.2280 N   0  0  0  0  0  0  0  0  0  0  0  0
   25.6280    8.6680   -7.3720 N   0  0  0  0  0  0  0  0  0  0  0  0
   26.0920    7.3690   -7.5440 C   0  0  0  0  0  0  0  0  0  0  0  0
   26.9120    7.0570   -8.6180 N   0  0  0  0  0  0  0  0  0  0  0  0
   27.2560    8.0360   -9.5150 C   0  0  0  0  0  0  0  0  0  0  0  0
   26.9040    9.3790   -9.5030 C   0  0  0  0  0  0  0  0  0  0  0  0
   24.3730   11.4440   -8.9060 C   0  0  1  0  0  0  0  0  0  0  0  0
   24.0030   12.7590   -8.8410 C   0  0  0  0  0  0  0  0  0  0  0  0
   26.7450   11.7740   -7.7680 C   0  0  1  0  0  0  0  0  0  0  0  0
   26.3230   12.8740   -6.7020 C   0  0  1  0  0  0  0  0  0  0  0  0
   25.3010   13.8420   -7.3330 C   0  0  1  0  0  0  0  0  0  0  0  0
   24.8970   13.7640   -8.5800 N   0  0  0  0  0  0  0  0  0  0  0  0
   22.7430   13.1540   -9.0220 O   0  0  0  0  0  0  0  0  0  0  0  0
   28.0730    7.5390  -10.5240 C   0  0  0  0  0  0  0  0  0  0  0  0
   28.5370    8.3880  -11.5210 N   0  0  0  0  0  0  0  0  0  0  0  0
   28.1860    9.7310  -11.5110 C   0  0  0  0  0  0  0  0  0  0  0  0
   27.3680   10.2280  -10.5010 C   0  0  0  0  0  0  0  0  0  0  0  0
   25.7010    6.2950   -6.5600 C   0  0  1  0  0  0  0  0  0  0  0  0
   24.4898   11.1970   -9.9715 H   0  0  0  0  0  0  0  0  0  0  0  0
   23.5737   10.9238   -8.3577 H   0  0  0  0  0  0  0  0  0  0  0  0
   27.4730   11.0909   -7.3061 H   0  0  0  0  0  0  0  0  0  0  0  0
   27.1825   12.2884   -8.6363 H   0  0  0  0  0  0  0  0  0  0  0  0
   25.8702   12.3823   -5.8284 H   0  0  0  0  0  0  0  0  0  0  0  0
   27.2135   13.4378   -6.3872 H   0  0  0  0  0  0  0  0  0  0  0  0
   24.3925   13.7610   -6.7181 H   0  0  0  0  0  0  0  0  0  0  0  0
   25.8801   14.7769   -7.3556 H   0  0  0  0  0  0  0  0  0  0  0  0
   25.2282   14.4116   -9.3093 H   0  0  0  0  0  0  0  0  0  0  0  0
   28.3517    6.4749  -10.5330 H   0  0  0  0  0  0  0  0  0  0  0  0
   28.5543   10.4020  -12.3011 H   0  0  0  0  0  0  0  0  0  0  0  0
   27.0888   11.2919  -10.4924 H   0  0  0  0  0  0  0  0  0  0  0  0
   25.8374    6.6697   -5.5348 H   0  0  0  0  0  0  0  0  0  0  0  0
   24.6462    6.0232   -6.7137 H   0  0  0  0  0  0  0  0  0  0  0  0
   26.3342    5.4087   -6.7137 H   0  0  0  0  0  0  0  0  0  0  0  0
  1  7  1  0
  1  2  1  0
  1  3  2  0
  2  8  1  0
  2 10  1  0
  3  4  1  0
  4  5  2  0
  4 19  1  0
  5  6  1  0
  6 15  1  0
  6  7  2  0
  7 18  1  0
  8  9  1  0
  9 14  2  0
  9 13  1  0
 10 11  1  0
 11 12  1  0
 12 13  1  0
 15 16  2  0
 16 17  1  0
 17 18  2  0
  8 20  1  6
  8 21  1  0
 10 22  1  1
 10 23  1  0
 11 24  1  1
 11 25  1  0
 12 26  1  1
 12 27  1  0
 13 28  1  0
 15 29  1  0
 17 30  1  0
 18 31  1  0
 19 32  1  1
 19 33  1  0
 19 34  1  0
M  END
>  <Pose ID>  (437)
48

>  <Score>  (437)
-5.579165935516357

>  <smiles>  (437)
Cc1nc(N2CCCNC(=O)C2)c2ccncc2n1

$$$$

     RDKit          3D

 35 38  0  0  0  0  0  0  0  0999 V2000
   27.8510    7.8290  -10.2490 C   0  0  0  0  0  0  0  0  0  0  0  0
   28.8220    7.1190  -10.9440 C   0  0  0  0  0  0  0  0  0  0  0  0
   29.6550    7.7800  -11.8410 N   0  0  0  0  0  0  0  0  0  0  0  0
   29.5160    9.1480  -12.0410 C   0  0  0  0  0  0  0  0  0  0  0  0
   27.0650    6.9940   -9.3440 O   0  0  0  0  0  0  0  0  0  0  0  0
   28.5430    9.8570  -11.3440 C   0  0  0  0  0  0  0  0  0  0  0  0
   27.7120    9.1960  -10.4470 C   0  0  0  0  0  0  0  0  0  0  0  0
   30.1920    9.9970  -12.8410 N   0  0  0  0  0  0  0  0  0  0  0  0
   29.6700   11.2620  -12.6850 C   0  0  0  0  0  0  0  0  0  0  0  0
   28.6590   11.0060  -11.7330 C   0  0  0  0  0  0  0  0  0  0  0  0
   26.2400    7.4950   -8.3300 C   0  0  0  0  0  0  0  0  0  0  0  0
   25.4050    8.5500   -8.6600 N   0  0  0  0  0  0  0  0  0  0  0  0
   24.7470    8.8880   -7.5820 N   0  0  0  0  0  0  0  0  0  0  0  0
   25.0500    8.1250   -6.4610 C   0  0  0  0  0  0  0  0  0  0  0  0
   25.9850    7.2390   -6.9940 C   0  0  0  0  0  0  0  0  0  0  0  0
   23.8010    9.9040   -7.4950 C   0  0  0  0  0  0  0  0  0  0  0  0
   23.1610   10.1570   -6.2890 C   0  0  0  0  0  0  0  0  0  0  0  0
   23.4640    9.3940   -5.1670 C   0  0  0  0  0  0  0  0  0  0  0  0
   24.4090    8.3760   -5.2540 C   0  0  0  0  0  0  0  0  0  0  0  0
   22.7690    9.6680   -3.8570 C   0  0  1  0  0  0  0  0  0  0  0  0
   27.7620   12.1050  -11.2210 C   0  0  1  0  0  0  0  0  0  0  0  0
   28.9320    6.0361  -10.7853 H   0  0  0  0  0  0  0  0  0  0  0  0
   30.3753    7.2550  -12.3572 H   0  0  0  0  0  0  0  0  0  0  0  0
   26.9439    9.7563   -9.8938 H   0  0  0  0  0  0  0  0  0  0  0  0
   29.9597   12.2073  -13.1672 H   0  0  0  0  0  0  0  0  0  0  0  0
   26.4637    6.4316   -6.4204 H   0  0  0  0  0  0  0  0  0  0  0  0
   23.5597   10.5076   -8.3824 H   0  0  0  0  0  0  0  0  0  0  0  0
   22.4139   10.9615   -6.2213 H   0  0  0  0  0  0  0  0  0  0  0  0
   24.6484    7.7703   -4.3675 H   0  0  0  0  0  0  0  0  0  0  0  0
   23.4381    9.4042   -3.0247 H   0  0  0  0  0  0  0  0  0  0  0  0
   22.5104   10.7354   -3.7954 H   0  0  0  0  0  0  0  0  0  0  0  0
   21.8515    9.0643   -3.7954 H   0  0  0  0  0  0  0  0  0  0  0  0
   27.7665   12.0994  -10.1210 H   0  0  0  0  0  0  0  0  0  0  0  0
   28.1284   13.0765  -11.5843 H   0  0  0  0  0  0  0  0  0  0  0  0
   26.7368   11.9407  -11.5843 H   0  0  0  0  0  0  0  0  0  0  0  0
  1  2  2  0
  1  7  1  0
  1  5  1  0
  2  3  1  0
  3  4  1  0
  4  8  2  0
  4  6  1  0
  6 10  1  0
  6  7  2  0
  8  9  1  0
  9 10  2  0
 10 21  1  0
  5 11  1  0
 11 12  2  0
 11 15  1  0
 12 13  1  0
 13 16  1  0
 13 14  1  0
 14 15  2  0
 14 19  1  0
 16 17  2  0
 17 18  1  0
 18 19  2  0
 18 20  1  0
  2 22  1  0
  3 23  1  0
  7 24  1  0
  9 25  1  0
 15 26  1  0
 16 27  1  0
 17 28  1  0
 19 29  1  0
 20 30  1  1
 20 31  1  0
 20 32  1  0
 21 33  1  1
 21 34  1  0
 21 35  1  0
M  END
>  <Pose ID>  (438)
342

>  <Score>  (438)
-5.5783514976501465

>  <smiles>  (438)
Cc1ccn2nc(Oc3c[nH]c4ncc(C)c-4c3)cc2c1

$$$$

     RDKit          3D

 35 38  0  0  0  0  0  0  0  0999 V2000
   27.1110    8.2060  -10.0690 C   0  0  0  0  0  0  0  0  0  0  0  0
   27.8290    7.2380  -10.7590 C   0  0  0  0  0  0  0  0  0  0  0  0
   28.8330    7.6150  -11.6420 N   0  0  0  0  0  0  0  0  0  0  0  0
   29.1200    8.9610  -11.8350 C   0  0  0  0  0  0  0  0  0  0  0  0
   26.1000    7.6470   -9.1760 O   0  0  0  0  0  0  0  0  0  0  0  0
   28.3990    9.9300  -11.1470 C   0  0  0  0  0  0  0  0  0  0  0  0
   27.3960    9.5520  -10.2610 C   0  0  0  0  0  0  0  0  0  0  0  0
   30.0300    9.5650  -12.6230 N   0  0  0  0  0  0  0  0  0  0  0  0
   29.9160   10.9280  -12.4670 C   0  0  0  0  0  0  0  0  0  0  0  0
   28.8630   10.9910  -11.5290 C   0  0  0  0  0  0  0  0  0  0  0  0
   25.4540    8.3750   -8.1680 C   0  0  0  0  0  0  0  0  0  0  0  0
   24.9840    9.6330   -8.5030 N   0  0  0  0  0  0  0  0  0  0  0  0
   24.4140   10.1880   -7.3720 N   0  0  0  0  0  0  0  0  0  0  0  0
   24.5100    9.3010   -6.3700 C   0  0  0  0  0  0  0  0  0  0  0  0
   25.1190    8.2050   -6.8360 C   0  0  0  0  0  0  0  0  0  0  0  0
   23.9220   11.3040   -7.4100 C   0  0  0  0  0  0  0  0  0  0  0  0
   23.3270   11.9880   -6.3560 C   0  0  0  0  0  0  0  0  0  0  0  0
   24.0500   11.9170   -8.6500 C   0  0  0  0  0  0  0  0  0  0  0  0
   23.5860   13.2140   -8.8370 C   0  0  0  0  0  0  0  0  0  0  0  0
   22.9910   13.8970   -7.7820 N   0  0  0  0  0  0  0  0  0  0  0  0
   22.8550   13.3320   -6.5370 C   0  0  0  0  0  0  0  0  0  0  0  0
   25.3990    6.9640   -6.0270 C   0  0  1  0  0  0  0  0  0  0  0  0
   27.6026    6.1724  -10.6063 H   0  0  0  0  0  0  0  0  0  0  0  0
   29.3649    6.8967  -12.1538 H   0  0  0  0  0  0  0  0  0  0  0  0
   26.8286   10.3184   -9.7125 H   0  0  0  0  0  0  0  0  0  0  0  0
   30.4861   11.7407  -12.9408 H   0  0  0  0  0  0  0  0  0  0  0  0
   28.4786   11.9532  -11.1596 H   0  0  0  0  0  0  0  0  0  0  0  0
   24.1496    9.4496   -5.3414 H   0  0  0  0  0  0  0  0  0  0  0  0
   23.2172   11.4969   -5.3779 H   0  0  0  0  0  0  0  0  0  0  0  0
   24.5190   11.3755   -9.4848 H   0  0  0  0  0  0  0  0  0  0  0  0
   23.6894   13.6995   -9.8186 H   0  0  0  0  0  0  0  0  0  0  0  0
   22.3995   13.8909   -5.7062 H   0  0  0  0  0  0  0  0  0  0  0  0
   25.3446    7.2050   -4.9551 H   0  0  0  0  0  0  0  0  0  0  0  0
   24.6522    6.1931   -6.2678 H   0  0  0  0  0  0  0  0  0  0  0  0
   26.4045    6.5884   -6.2678 H   0  0  0  0  0  0  0  0  0  0  0  0
 11  5  1  0
 11 12  2  0
 11 15  1  0
 12 13  1  0
 13 16  1  0
 13 14  1  0
 14 15  2  0
 15 22  1  0
 16 18  1  0
 16 17  2  0
 17 21  1  0
 18 19  2  0
 19 20  1  0
 20 21  2  0
  5  1  1  0
  1  2  2  0
  1  7  1  0
  2  3  1  0
  3  4  1  0
  4  8  2  0
  4  6  1  0
  6 10  1  0
  6  7  2  0
  8  9  1  0
  9 10  2  0
  2 23  1  0
  3 24  1  0
  7 25  1  0
  9 26  1  0
 10 27  1  0
 14 28  1  0
 17 29  1  0
 18 30  1  0
 19 31  1  0
 21 32  1  0
 22 33  1  1
 22 34  1  0
 22 35  1  0
M  END
>  <Pose ID>  (439)
428

>  <Score>  (439)
-5.566557884216309

>  <smiles>  (439)
Cc1cn(-c2ccncc2)nc1Oc1c[nH]c2nccc-2c1

$$$$

     RDKit          3D

 38 41  0  0  0  0  0  0  0  0999 V2000
   27.5010    7.7140   -9.7720 C   0  0  0  0  0  0  0  0  0  0  0  0
   26.7310    6.7920   -9.0730 N   0  0  0  0  0  0  0  0  0  0  0  0
   26.0300    7.1900   -7.9400 C   0  0  0  0  0  0  0  0  0  0  0  0
   25.3310    6.2090   -7.2930 C   0  0  0  0  0  0  0  0  0  0  0  0
   24.5850    6.5010   -6.1580 N   0  0  0  0  0  0  0  0  0  0  0  0
   24.5500    7.7950   -5.6610 C   0  0  0  0  0  0  0  0  0  0  0  0
   25.2670    8.8050   -6.2970 C   0  0  0  0  0  0  0  0  0  0  0  0
   26.0990    8.5080   -7.5070 C   0  0  0  0  0  0  0  0  0  0  0  0
   27.5690    9.0340   -9.3390 C   0  0  0  0  0  0  0  0  0  0  0  0
   26.8690    9.4310   -8.2070 C   0  0  0  0  0  0  0  0  0  0  0  0
   28.2700    7.5690  -10.9000 N   0  0  0  0  0  0  0  0  0  0  0  0
   29.0000    8.3990  -11.5350 C   0  0  0  0  0  0  0  0  0  0  0  0
   30.3940    8.3410  -11.7080 N   0  0  0  0  0  0  0  0  0  0  0  0
   30.7230    9.4230  -12.4190 O   0  0  0  0  0  0  0  0  0  0  0  0
   29.6920   10.1340  -12.7100 C   0  0  0  0  0  0  0  0  0  0  0  0
   28.5640    9.4950  -12.1970 C   0  0  0  0  0  0  0  0  0  0  0  0
   23.7950    8.0870   -4.5110 C   0  0  0  0  0  0  0  0  0  0  0  0
   23.0690    7.3560   -3.7050 N   0  0  0  0  0  0  0  0  0  0  0  0
   22.5410    8.1320   -2.7490 C   0  0  0  0  0  0  0  0  0  0  0  0
   23.7670    9.3850   -4.0190 C   0  0  0  0  0  0  0  0  0  0  0  0
   23.0590    9.5150   -3.0050 C   0  0  0  0  0  0  0  0  0  0  0  0
   26.9410   10.8630   -7.7380 C   0  0  1  0  0  0  0  0  0  0  0  0
   25.6000   11.5470   -7.5050 C   0  0  1  0  0  0  0  0  0  0  0  0
   25.3596    5.1779   -7.6751 H   0  0  0  0  0  0  0  0  0  0  0  0
   25.2221    9.8324   -5.9067 H   0  0  0  0  0  0  0  0  0  0  0  0
   28.1774    9.7638   -9.8933 H   0  0  0  0  0  0  0  0  0  0  0  0
   28.2543    6.6220  -11.3048 H   0  0  0  0  0  0  0  0  0  0  0  0
   29.6987   11.0824  -13.2673 H   0  0  0  0  0  0  0  0  0  0  0  0
   27.5191    9.8201  -12.3092 H   0  0  0  0  0  0  0  0  0  0  0  0
   22.9253    6.3398   -3.7920 H   0  0  0  0  0  0  0  0  0  0  0  0
   21.8646    7.8179   -1.9404 H   0  0  0  0  0  0  0  0  0  0  0  0
   24.3176   10.2175   -4.4813 H   0  0  0  0  0  0  0  0  0  0  0  0
   22.8594   10.4313   -2.4300 H   0  0  0  0  0  0  0  0  0  0  0  0
   27.4995   10.8812   -6.7905 H   0  0  0  0  0  0  0  0  0  0  0  0
   27.4269   11.4221   -8.5512 H   0  0  0  0  0  0  0  0  0  0  0  0
   25.4185   11.6396   -6.4240 H   0  0  0  0  0  0  0  0  0  0  0  0
   25.6146   12.5478   -7.9614 H   0  0  0  0  0  0  0  0  0  0  0  0
   24.7985   10.9476   -7.9614 H   0  0  0  0  0  0  0  0  0  0  0  0
  1 11  1  0
  1  9  1  0
  1  2  2  0
  2  3  1  0
  3  8  2  0
  3  4  1  0
  4  5  2  0
  5  6  1  0
  6  7  2  0
  6 17  1  0
  7  8  1  0
  8 10  1  0
  9 10  2  0
 10 22  1  0
 11 12  1  0
 12 16  1  0
 12 13  2  0
 13 14  1  0
 14 15  1  0
 15 16  2  0
 17 20  2  0
 17 18  1  0
 18 19  1  0
 19 21  2  0
 20 21  1  0
 22 23  1  0
  4 24  1  0
  7 25  1  0
  9 26  1  0
 11 27  1  0
 15 28  1  0
 16 29  1  0
 18 30  1  0
 19 31  1  0
 20 32  1  0
 21 33  1  0
 22 34  1  1
 22 35  1  0
 23 36  1  1
 23 37  1  0
 23 38  1  0
M  END
>  <Pose ID>  (440)
35

>  <Score>  (440)
-5.563663005828857

>  <smiles>  (440)
CCc1cc(Nc2ccon2)nc2cnc(-c3ccc[nH]3)cc12

$$$$

     RDKit          3D

 40 42  0  0  0  0  0  0  0  0999 V2000
   28.5010   10.3340  -11.9270 C   0  0  0  0  0  0  0  0  0  0  0  0
   29.4690    9.3400  -11.8360 C   0  0  0  0  0  0  0  0  0  0  0  0
   29.2480    8.1500  -11.1590 N   0  0  0  0  0  0  0  0  0  0  0  0
   28.0010    7.9210  -10.5890 C   0  0  0  0  0  0  0  0  0  0  0  0
   26.9990    8.8790  -10.6970 C   0  0  0  0  0  0  0  0  0  0  0  0
   27.2390   10.0500  -11.3890 C   0  0  0  0  0  0  0  0  0  0  0  0
   27.7800    6.8580   -9.9860 O   0  0  0  0  0  0  0  0  0  0  0  0
   30.7260    9.5440  -12.3980 N   0  0  0  0  0  0  0  0  0  0  0  0
   31.0100   10.7360  -13.0520 C   0  0  0  0  0  0  0  0  0  0  0  0
   30.0400   11.7270  -13.1430 C   0  0  0  0  0  0  0  0  0  0  0  0
   28.7820   11.5210  -12.5690 C   0  0  0  0  0  0  0  0  0  0  0  0
   25.7130    8.8960  -10.2160 N   0  0  0  0  0  0  0  0  0  0  0  0
   25.4120    8.7930   -8.7680 C   0  0  0  0  0  0  0  0  0  0  0  0
   24.9490    7.5790   -8.2700 C   0  0  0  0  0  0  0  0  0  0  0  0
   24.6580    7.4460   -6.9190 C   0  0  0  0  0  0  0  0  0  0  0  0
   24.8310    8.5270   -6.0610 C   0  0  0  0  0  0  0  0  0  0  0  0
   25.2910    9.7400   -6.5590 C   0  0  0  0  0  0  0  0  0  0  0  0
   25.5810    9.8740   -7.9100 C   0  0  0  0  0  0  0  0  0  0  0  0
   25.4590   10.8030   -5.7140 N   0  0  0  0  0  0  0  0  0  0  0  0
   26.4920   11.8090   -5.9960 C   0  0  1  0  0  0  0  0  0  0  0  0
   25.2080   10.9250   -4.2910 C   0  0  1  0  0  0  0  0  0  0  0  0
   30.3430   13.0200  -13.8600 C   0  0  1  0  0  0  0  0  0  0  0  0
   29.9963    7.4467  -11.0798 H   0  0  0  0  0  0  0  0  0  0  0  0
   26.4221   10.7748  -11.5205 H   0  0  0  0  0  0  0  0  0  0  0  0
   32.0028   10.8956  -13.4979 H   0  0  0  0  0  0  0  0  0  0  0  0
   28.0152   12.3074  -12.6298 H   0  0  0  0  0  0  0  0  0  0  0  0
   24.9325    8.9831  -10.8825 H   0  0  0  0  0  0  0  0  0  0  0  0
   24.8133    6.7233   -8.9478 H   0  0  0  0  0  0  0  0  0  0  0  0
   24.2907    6.4860   -6.5273 H   0  0  0  0  0  0  0  0  0  0  0  0
   24.6040    8.4218   -4.9898 H   0  0  0  0  0  0  0  0  0  0  0  0
   25.9445   10.8355   -8.3017 H   0  0  0  0  0  0  0  0  0  0  0  0
   26.8924   12.1989   -5.0486 H   0  0  0  0  0  0  0  0  0  0  0  0
   27.3051   11.3472   -6.5753 H   0  0  0  0  0  0  0  0  0  0  0  0
   26.0519   12.6341   -6.5753 H   0  0  0  0  0  0  0  0  0  0  0  0
   26.0598   10.5110   -3.7316 H   0  0  0  0  0  0  0  0  0  0  0  0
   25.0795   11.9861   -4.0310 H   0  0  0  0  0  0  0  0  0  0  0  0
   24.2943   10.3705   -4.0310 H   0  0  0  0  0  0  0  0  0  0  0  0
   30.5290   13.8138  -13.1216 H   0  0  0  0  0  0  0  0  0  0  0  0
   31.2349   12.8894  -14.4905 H   0  0  0  0  0  0  0  0  0  0  0  0
   29.4860   13.2992  -14.4905 H   0  0  0  0  0  0  0  0  0  0  0  0
  1 11  1  0
  1  2  2  0
  1  6  1  0
  2  8  1  0
  2  3  1  0
  3  4  1  0
  4  5  1  0
  4  7  2  0
  5  6  2  0
  5 12  1  0
  8  9  2  0
  9 10  1  0
 10 22  1  0
 10 11  2  0
 12 13  1  0
 13 14  2  0
 13 18  1  0
 14 15  1  0
 15 16  2  0
 16 17  1  0
 17 18  2  0
 17 19  1  0
 19 20  1  0
 19 21  1  0
  3 23  1  0
  6 24  1  0
  9 25  1  0
 11 26  1  0
 12 27  1  0
 14 28  1  0
 15 29  1  0
 16 30  1  0
 18 31  1  0
 20 32  1  1
 20 33  1  0
 20 34  1  0
 21 35  1  1
 21 36  1  0
 21 37  1  0
 22 38  1  1
 22 39  1  0
 22 40  1  0
M  END
>  <Pose ID>  (441)
187

>  <Score>  (441)
-5.562007427215576

>  <smiles>  (441)
Cc1cnc2[nH]c(=O)c(Nc3cccc(N(C)C)c3)cc2c1

$$$$

     RDKit          3D

 38 41  0  0  0  0  0  0  0  0999 V2000
   27.8550    7.9020  -10.2900 C   0  0  0  0  0  0  0  0  0  0  0  0
   28.7790    7.1520  -11.0060 C   0  0  0  0  0  0  0  0  0  0  0  0
   29.6400    7.7800  -11.8990 N   0  0  0  0  0  0  0  0  0  0  0  0
   29.5760    9.1570  -12.0740 C   0  0  0  0  0  0  0  0  0  0  0  0
   27.0310    7.0970   -9.3910 O   0  0  0  0  0  0  0  0  0  0  0  0
   28.6510    9.9070  -11.3560 C   0  0  0  0  0  0  0  0  0  0  0  0
   27.7910    9.2780  -10.4630 C   0  0  0  0  0  0  0  0  0  0  0  0
   30.2910    9.9810  -12.8660 N   0  0  0  0  0  0  0  0  0  0  0  0
   29.8430   11.2710  -12.6830 C   0  0  0  0  0  0  0  0  0  0  0  0
   28.8270   11.0550  -11.7270 C   0  0  0  0  0  0  0  0  0  0  0  0
   26.2450    7.6260   -8.3610 C   0  0  0  0  0  0  0  0  0  0  0  0
   25.4670    8.7310   -8.6640 N   0  0  0  0  0  0  0  0  0  0  0  0
   24.8380    9.0860   -7.5740 N   0  0  0  0  0  0  0  0  0  0  0  0
   25.1080    8.2880   -6.4690 C   0  0  0  0  0  0  0  0  0  0  0  0
   25.9870    7.3610   -7.0260 C   0  0  0  0  0  0  0  0  0  0  0  0
   23.9520   10.1510   -7.4620 C   0  0  0  0  0  0  0  0  0  0  0  0
   23.3380   10.4190   -6.2440 C   0  0  0  0  0  0  0  0  0  0  0  0
   23.6080    9.6210   -5.1390 C   0  0  0  0  0  0  0  0  0  0  0  0
   24.4930    8.5540   -5.2520 C   0  0  0  0  0  0  0  0  0  0  0  0
   22.9400    9.9110   -3.8180 C   0  0  1  0  0  0  0  0  0  0  0  0
   23.7060    9.2510   -2.6620 C   0  0  1  0  0  0  0  0  0  0  0  0
   23.6570   11.0170   -8.6620 C   0  0  1  0  0  0  0  0  0  0  0  0
   28.8296    6.0620  -10.8667 H   0  0  0  0  0  0  0  0  0  0  0  0
   30.3252    7.2245  -12.4308 H   0  0  0  0  0  0  0  0  0  0  0  0
   27.0598    9.8705   -9.8935 H   0  0  0  0  0  0  0  0  0  0  0  0
   30.1820   12.2071  -13.1508 H   0  0  0  0  0  0  0  0  0  0  0  0
   28.2213   11.8851  -11.3344 H   0  0  0  0  0  0  0  0  0  0  0  0
   26.4244    6.5181   -6.4709 H   0  0  0  0  0  0  0  0  0  0  0  0
   22.6382   11.2630   -6.1549 H   0  0  0  0  0  0  0  0  0  0  0  0
   24.7059    7.9209   -4.3780 H   0  0  0  0  0  0  0  0  0  0  0  0
   22.9139   10.9991   -3.6584 H   0  0  0  0  0  0  0  0  0  0  0  0
   21.9189    9.5026   -3.8425 H   0  0  0  0  0  0  0  0  0  0  0  0
   23.2975    9.6030   -1.7032 H   0  0  0  0  0  0  0  0  0  0  0  0
   23.5983    8.1582   -2.7274 H   0  0  0  0  0  0  0  0  0  0  0  0
   24.7708    9.5191   -2.7274 H   0  0  0  0  0  0  0  0  0  0  0  0
   23.3194   12.0081   -8.3248 H   0  0  0  0  0  0  0  0  0  0  0  0
   24.5685   11.1267   -9.2680 H   0  0  0  0  0  0  0  0  0  0  0  0
   22.8681   10.5475   -9.2680 H   0  0  0  0  0  0  0  0  0  0  0  0
 11  5  1  0
 11 12  2  0
 11 15  1  0
 12 13  1  0
 13 16  1  0
 13 14  1  0
 14 15  2  0
 14 19  1  0
 16 22  1  0
 16 17  2  0
 17 18  1  0
 18 19  2  0
 18 20  1  0
 20 21  1  0
  5  1  1  0
  1  2  2  0
  1  7  1  0
  2  3  1  0
  3  4  1  0
  4  8  2  0
  4  6  1  0
  6 10  1  0
  6  7  2  0
  8  9  1  0
  9 10  2  0
  2 23  1  0
  3 24  1  0
  7 25  1  0
  9 26  1  0
 10 27  1  0
 15 28  1  0
 17 29  1  0
 19 30  1  0
 20 31  1  1
 20 32  1  0
 21 33  1  1
 21 34  1  0
 21 35  1  0
 22 36  1  1
 22 37  1  0
 22 38  1  0
M  END
>  <Pose ID>  (442)
352

>  <Score>  (442)
-5.558246612548828

>  <smiles>  (442)
CCc1cc(C)n2nc(Oc3c[nH]c4nccc-4c3)cc2c1

$$$$

     RDKit          3D

 37 40  0  0  0  0  0  0  0  0999 V2000
   27.3350    7.9620  -10.1650 C   0  0  0  0  0  0  0  0  0  0  0  0
   28.4240    7.1830  -10.5240 C   0  0  0  0  0  0  0  0  0  0  0  0
   29.4090    7.7060  -11.3520 N   0  0  0  0  0  0  0  0  0  0  0  0
   26.5300    7.2500   -9.3600 N   0  0  0  0  0  0  0  0  0  0  0  0
   29.3040    9.0110  -11.8190 C   0  0  0  0  0  0  0  0  0  0  0  0
   28.2120    9.7910  -11.4590 C   0  0  0  0  0  0  0  0  0  0  0  0
   27.2280    9.2690  -10.6320 C   0  0  0  0  0  0  0  0  0  0  0  0
   30.1170    9.7270  -12.6160 N   0  0  0  0  0  0  0  0  0  0  0  0
   29.5710   10.9780  -12.7910 C   0  0  0  0  0  0  0  0  0  0  0  0
   28.3950   10.8550  -12.0230 C   0  0  0  0  0  0  0  0  0  0  0  0
   25.9680    7.7760   -8.1570 C   0  0  0  0  0  0  0  0  0  0  0  0
   25.3220    6.9000   -7.2930 N   0  0  0  0  0  0  0  0  0  0  0  0
   24.6600    7.3890   -6.1730 C   0  0  0  0  0  0  0  0  0  0  0  0
   24.6460    8.7550   -5.9160 C   0  0  0  0  0  0  0  0  0  0  0  0
   25.2920    9.6320   -6.7790 C   0  0  0  0  0  0  0  0  0  0  0  0
   25.9800    9.1360   -7.8850 C   0  0  0  0  0  0  0  0  0  0  0  0
   23.9470    6.7260   -5.1690 C   0  0  0  0  0  0  0  0  0  0  0  0
   23.6350    7.6930   -4.2380 N   0  0  0  0  0  0  0  0  0  0  0  0
   24.0400    8.8790   -4.5580 C   0  0  0  0  0  0  0  0  0  0  0  0
   23.9330   10.0240   -3.8000 O   0  0  0  0  0  0  0  0  0  0  0  0
   23.1830   10.0870   -2.6430 C   0  0  1  0  0  0  0  0  0  0  0  0
   23.4260    8.6680   -1.9840 C   0  0  1  0  0  0  0  0  0  0  0  0
   28.5081    6.1508  -10.1532 H   0  0  0  0  0  0  0  0  0  0  0  0
   30.2174    7.1267  -11.6200 H   0  0  0  0  0  0  0  0  0  0  0  0
   26.3074    6.2792   -9.6223 H   0  0  0  0  0  0  0  0  0  0  0  0
   26.3643    9.8871  -10.3457 H   0  0  0  0  0  0  0  0  0  0  0  0
   29.9472   11.8350  -13.3689 H   0  0  0  0  0  0  0  0  0  0  0  0
   27.6753   11.6825  -11.9370 H   0  0  0  0  0  0  0  0  0  0  0  0
   25.3338    5.8877   -7.4827 H   0  0  0  0  0  0  0  0  0  0  0  0
   25.2604   10.7151   -6.5897 H   0  0  0  0  0  0  0  0  0  0  0  0
   26.5327    9.8233   -8.5424 H   0  0  0  0  0  0  0  0  0  0  0  0
   23.6894    5.6573   -5.1305 H   0  0  0  0  0  0  0  0  0  0  0  0
   23.5376   10.8944   -1.9854 H   0  0  0  0  0  0  0  0  0  0  0  0
   22.1203   10.3038   -2.8263 H   0  0  0  0  0  0  0  0  0  0  0  0
   23.4094    8.7648   -0.8884 H   0  0  0  0  0  0  0  0  0  0  0  0
   22.6334    7.9751   -2.3029 H   0  0  0  0  0  0  0  0  0  0  0  0
   24.4040    8.2783   -2.3029 H   0  0  0  0  0  0  0  0  0  0  0  0
 11  4  1  0
 11 16  2  0
 11 12  1  0
 12 13  1  0
 13 14  1  0
 13 17  2  0
 14 15  2  0
 14 19  1  0
 15 16  1  0
 17 18  1  0
 18 19  2  0
 19 20  1  0
  4  1  1  0
  1  7  1  0
  1  2  2  0
  2  3  1  0
  3  5  1  0
  5  8  2  0
  5  6  1  0
  6 10  1  0
  6  7  2  0
  8  9  1  0
  9 10  2  0
 20 21  1  0
 21 22  1  0
  2 23  1  0
  3 24  1  0
  4 25  1  0
  7 26  1  0
  9 27  1  0
 10 28  1  0
 12 29  1  0
 15 30  1  0
 16 31  1  0
 17 32  1  0
 21 33  1  1
 21 34  1  0
 22 35  1  1
 22 36  1  0
 22 37  1  0
M  END
>  <Pose ID>  (443)
67

>  <Score>  (443)
-5.5550856590271

>  <smiles>  (443)
CCOc1ncc2[nH]c(Nc3c[nH]c4nccc-4c3)ccc1-2

$$$$

     RDKit          3D

 36 39  0  0  0  0  0  0  0  0999 V2000
   28.0290    7.8910  -10.4880 C   0  0  0  0  0  0  0  0  0  0  0  0
   28.8990    7.1390  -11.2660 C   0  0  0  0  0  0  0  0  0  0  0  0
   29.7730    7.7720  -12.1410 N   0  0  0  0  0  0  0  0  0  0  0  0
   29.7800    9.1580  -12.2360 C   0  0  0  0  0  0  0  0  0  0  0  0
   27.1840    7.0810   -9.6170 O   0  0  0  0  0  0  0  0  0  0  0  0
   28.9080    9.9120  -11.4570 C   0  0  0  0  0  0  0  0  0  0  0  0
   28.0340    9.2780  -10.5840 C   0  0  0  0  0  0  0  0  0  0  0  0
   30.5220    9.9880  -12.9950 N   0  0  0  0  0  0  0  0  0  0  0  0
   30.1460   11.2860  -12.7310 C   0  0  0  0  0  0  0  0  0  0  0  0
   29.1360   11.0670  -11.7670 C   0  0  0  0  0  0  0  0  0  0  0  0
   26.4450    7.5870   -8.5430 C   0  0  0  0  0  0  0  0  0  0  0  0
   25.7220    8.7480   -8.7660 N   0  0  0  0  0  0  0  0  0  0  0  0
   25.0970    9.0930   -7.5830 N   0  0  0  0  0  0  0  0  0  0  0  0
   25.4060    8.1770   -6.6540 C   0  0  0  0  0  0  0  0  0  0  0  0
   26.2000    7.2610   -7.2190 C   0  0  0  0  0  0  0  0  0  0  0  0
   24.3050   10.1890   -7.4270 C   0  0  0  0  0  0  0  0  0  0  0  0
   24.2540   11.2030   -8.3780 C   0  0  0  0  0  0  0  0  0  0  0  0
   23.7050   10.3700   -6.1870 C   0  0  0  0  0  0  0  0  0  0  0  0
   23.0540   11.5640   -5.8960 C   0  0  0  0  0  0  0  0  0  0  0  0
   23.6040   12.3970   -8.0860 C   0  0  0  0  0  0  0  0  0  0  0  0
   22.9950   12.5670   -6.8490 N   0  0  0  0  0  0  0  0  0  0  0  0
   23.5680   13.3100   -8.9300 O   0  0  0  0  0  0  0  0  0  0  0  0
   22.4140   11.7660   -4.5450 C   0  0  1  0  0  0  0  0  0  0  0  0
   28.8963    6.0417  -11.1896 H   0  0  0  0  0  0  0  0  0  0  0  0
   30.4163    7.2133  -12.7197 H   0  0  0  0  0  0  0  0  0  0  0  0
   27.3447    9.8738   -9.9676 H   0  0  0  0  0  0  0  0  0  0  0  0
   30.5253   12.2288  -13.1522 H   0  0  0  0  0  0  0  0  0  0  0  0
   28.5806   11.9030  -11.3168 H   0  0  0  0  0  0  0  0  0  0  0  0
   25.0654    8.1786   -5.6081 H   0  0  0  0  0  0  0  0  0  0  0  0
   26.6014    6.3749   -6.7055 H   0  0  0  0  0  0  0  0  0  0  0  0
   24.7276   11.0603   -9.3605 H   0  0  0  0  0  0  0  0  0  0  0  0
   23.7449    9.5683   -5.4349 H   0  0  0  0  0  0  0  0  0  0  0  0
   22.4969   13.4439   -6.6395 H   0  0  0  0  0  0  0  0  0  0  0  0
   23.1442   11.5355   -3.7552 H   0  0  0  0  0  0  0  0  0  0  0  0
   22.0859   12.8114   -4.4473 H   0  0  0  0  0  0  0  0  0  0  0  0
   21.5452   11.0984   -4.4473 H   0  0  0  0  0  0  0  0  0  0  0  0
 11  5  1  0
 11 12  2  0
 11 15  1  0
 12 13  1  0
 13 16  1  0
 13 14  1  0
 14 15  2  0
 16 17  2  0
 16 18  1  0
 17 20  1  0
 18 19  2  0
 19 21  1  0
 19 23  1  0
 20 22  2  0
 20 21  1  0
  5  1  1  0
  1  2  2  0
  1  7  1  0
  2  3  1  0
  3  4  1  0
  4  8  2  0
  4  6  1  0
  6 10  1  0
  6  7  2  0
  8  9  1  0
  9 10  2  0
  2 24  1  0
  3 25  1  0
  7 26  1  0
  9 27  1  0
 10 28  1  0
 14 29  1  0
 15 30  1  0
 17 31  1  0
 18 32  1  0
 21 33  1  0
 23 34  1  1
 23 35  1  0
 23 36  1  0
M  END
>  <Pose ID>  (444)
412

>  <Score>  (444)
-5.552919864654541

>  <smiles>  (444)
Cc1cc(-n2ccc(Oc3c[nH]c4nccc-4c3)n2)cc(=O)[nH]1

$$$$

     RDKit          3D

 37 40  0  0  0  0  0  0  0  0999 V2000
   27.6400    8.0240  -10.2710 C   0  0  0  0  0  0  0  0  0  0  0  0
   28.5490    7.1770  -10.8930 C   0  0  0  0  0  0  0  0  0  0  0  0
   29.5060    7.6990  -11.7540 N   0  0  0  0  0  0  0  0  0  0  0  0
   29.5560    9.0680  -11.9930 C   0  0  0  0  0  0  0  0  0  0  0  0
   26.7060    7.3220   -9.3930 O   0  0  0  0  0  0  0  0  0  0  0  0
   28.6430    9.9160  -11.3710 C   0  0  0  0  0  0  0  0  0  0  0  0
   27.6890    9.3920  -10.5090 C   0  0  0  0  0  0  0  0  0  0  0  0
   30.3760    9.8010  -12.7730 N   0  0  0  0  0  0  0  0  0  0  0  0
   30.0120   11.1250  -12.6760 C   0  0  0  0  0  0  0  0  0  0  0  0
   28.9260   11.0280  -11.7800 C   0  0  0  0  0  0  0  0  0  0  0  0
   25.8980    7.9540   -8.4410 C   0  0  0  0  0  0  0  0  0  0  0  0
   25.2250    9.0960   -8.8420 N   0  0  0  0  0  0  0  0  0  0  0  0
   24.5450    9.5500   -7.7810 N   0  0  0  0  0  0  0  0  0  0  0  0
   24.7190    8.7300   -6.6730 C   0  0  0  0  0  0  0  0  0  0  0  0
   25.5410    7.7730   -7.1170 C   0  0  0  0  0  0  0  0  0  0  0  0
   23.7250   10.6700   -7.6940 C   0  0  0  0  0  0  0  0  0  0  0  0
   23.0810   10.9690   -6.5000 N   0  0  0  0  0  0  0  0  0  0  0  0
   23.2550   10.1480   -5.3920 C   0  0  0  0  0  0  0  0  0  0  0  0
   24.0750    9.0290   -5.4780 C   0  0  0  0  0  0  0  0  0  0  0  0
   22.5560   10.4730   -4.0950 C   0  0  1  0  0  0  0  0  0  0  0  0
   23.2330    9.7590   -2.9160 C   0  0  1  0  0  0  0  0  0  0  0  0
   26.0250    6.6230   -6.2680 C   0  0  1  0  0  0  0  0  0  0  0  0
   28.5109    6.0941  -10.7038 H   0  0  0  0  0  0  0  0  0  0  0  0
   30.1794    7.0713  -12.2160 H   0  0  0  0  0  0  0  0  0  0  0  0
   26.9704   10.0614  -10.0134 H   0  0  0  0  0  0  0  0  0  0  0  0
   30.4464   12.0114  -13.1614 H   0  0  0  0  0  0  0  0  0  0  0  0
   28.3601   11.9171  -11.4649 H   0  0  0  0  0  0  0  0  0  0  0  0
   23.5863   11.3193   -8.5710 H   0  0  0  0  0  0  0  0  0  0  0  0
   24.2143    8.3802   -4.6007 H   0  0  0  0  0  0  0  0  0  0  0  0
   22.5932   11.5596   -3.9279 H   0  0  0  0  0  0  0  0  0  0  0  0
   21.5127   10.1310   -4.1618 H   0  0  0  0  0  0  0  0  0  0  0  0
   22.8468   10.1663   -1.9700 H   0  0  0  0  0  0  0  0  0  0  0  0
   23.0168    8.6816   -2.9667 H   0  0  0  0  0  0  0  0  0  0  0  0
   24.3203    9.9176   -2.9667 H   0  0  0  0  0  0  0  0  0  0  0  0
   25.9163    6.8813   -5.2043 H   0  0  0  0  0  0  0  0  0  0  0  0
   25.4279    5.7263   -6.4904 H   0  0  0  0  0  0  0  0  0  0  0  0
   27.0836    6.4231   -6.4904 H   0  0  0  0  0  0  0  0  0  0  0  0
 11  5  1  0
 11 12  2  0
 11 15  1  0
 12 13  1  0
 13 16  1  0
 13 14  1  0
 14 15  2  0
 14 19  1  0
 15 22  1  0
 16 17  2  0
 17 18  1  0
 18 19  2  0
 18 20  1  0
 20 21  1  0
  5  1  1  0
  1  2  2  0
  1  7  1  0
  2  3  1  0
  3  4  1  0
  4  8  2  0
  4  6  1  0
  6 10  1  0
  6  7  2  0
  8  9  1  0
  9 10  2  0
  2 23  1  0
  3 24  1  0
  7 25  1  0
  9 26  1  0
 10 27  1  0
 16 28  1  0
 19 29  1  0
 20 30  1  1
 20 31  1  0
 21 32  1  1
 21 33  1  0
 21 34  1  0
 22 35  1  1
 22 36  1  0
 22 37  1  0
M  END
>  <Pose ID>  (445)
302

>  <Score>  (445)
-5.552154064178467

>  <smiles>  (445)
CCc1cc2c(C)c(Oc3c[nH]c4nccc-4c3)nn2cn1

$$$$

     RDKit          3D

 37 40  0  0  0  0  0  0  0  0999 V2000
   27.8200    7.8120  -10.2910 C   0  0  0  0  0  0  0  0  0  0  0  0
   28.7420    7.1040  -11.0510 C   0  0  0  0  0  0  0  0  0  0  0  0
   29.5990    7.7810  -11.9100 N   0  0  0  0  0  0  0  0  0  0  0  0
   29.5340    9.1660  -12.0090 C   0  0  0  0  0  0  0  0  0  0  0  0
   26.9980    6.9580   -9.4380 O   0  0  0  0  0  0  0  0  0  0  0  0
   28.6090    9.8730  -11.2480 C   0  0  0  0  0  0  0  0  0  0  0  0
   27.7540    9.1960  -10.3900 C   0  0  0  0  0  0  0  0  0  0  0  0
   30.2470   10.0320  -12.7570 N   0  0  0  0  0  0  0  0  0  0  0  0
   29.7980   11.3080  -12.5020 C   0  0  0  0  0  0  0  0  0  0  0  0
   28.7840   11.0390  -11.5570 C   0  0  0  0  0  0  0  0  0  0  0  0
   26.2140    7.4280   -8.3760 C   0  0  0  0  0  0  0  0  0  0  0  0
   25.4360    8.5490   -8.6180 N   0  0  0  0  0  0  0  0  0  0  0  0
   24.8060    8.8410   -7.5030 N   0  0  0  0  0  0  0  0  0  0  0  0
   25.0690    7.9840   -6.4420 C   0  0  0  0  0  0  0  0  0  0  0  0
   25.9590    7.0910   -7.0600 C   0  0  0  0  0  0  0  0  0  0  0  0
   23.9240    9.9020   -7.3360 C   0  0  0  0  0  0  0  0  0  0  0  0
   23.3050   10.1060   -6.1100 C   0  0  0  0  0  0  0  0  0  0  0  0
   23.5680    9.2480   -5.0480 C   0  0  0  0  0  0  0  0  0  0  0  0
   24.4500    8.1870   -5.2140 N   0  0  0  0  0  0  0  0  0  0  0  0
   30.2600   12.6250  -13.0740 C   0  0  1  0  0  0  0  0  0  0  0  0
   29.1340   13.0420  -13.9980 C   0  0  1  0  0  0  0  0  0  0  0  0
   27.9530   12.1460  -10.9560 C   0  0  1  0  0  0  0  0  0  0  0  0
   28.7937    6.0080  -10.9729 H   0  0  0  0  0  0  0  0  0  0  0  0
   30.2829    7.2563  -12.4738 H   0  0  0  0  0  0  0  0  0  0  0  0
   27.0233    9.7558   -9.7877 H   0  0  0  0  0  0  0  0  0  0  0  0
   26.4032    6.2212   -6.5539 H   0  0  0  0  0  0  0  0  0  0  0  0
   23.7161   10.5810   -8.1761 H   0  0  0  0  0  0  0  0  0  0  0  0
   22.6069   10.9460   -5.9790 H   0  0  0  0  0  0  0  0  0  0  0  0
   23.0779    9.4090   -4.0764 H   0  0  0  0  0  0  0  0  0  0  0  0
   30.4055   13.3678  -12.2758 H   0  0  0  0  0  0  0  0  0  0  0  0
   31.2254   12.5436  -13.5950 H   0  0  0  0  0  0  0  0  0  0  0  0
   28.2684   13.3626  -13.3997 H   0  0  0  0  0  0  0  0  0  0  0  0
   29.4700   13.8753  -14.6326 H   0  0  0  0  0  0  0  0  0  0  0  0
   28.8461   12.1908  -14.6326 H   0  0  0  0  0  0  0  0  0  0  0  0
   27.9991   12.0847   -9.8587 H   0  0  0  0  0  0  0  0  0  0  0  0
   28.3454   13.1193  -11.2856 H   0  0  0  0  0  0  0  0  0  0  0  0
   26.9088   12.0409  -11.2856 H   0  0  0  0  0  0  0  0  0  0  0  0
  1  2  2  0
  1  7  1  0
  1  5  1  0
  2  3  1  0
  3  4  1  0
  4  8  2  0
  4  6  1  0
  6 10  1  0
  6  7  2  0
  8  9  1  0
  9 20  1  0
  9 10  2  0
 10 22  1  0
 20 21  1  0
  5 11  1  0
 11 12  2  0
 11 15  1  0
 12 13  1  0
 13 16  1  0
 13 14  1  0
 14 15  2  0
 14 19  1  0
 16 17  2  0
 17 18  1  0
 18 19  2  0
  2 23  1  0
  3 24  1  0
  7 25  1  0
 15 26  1  0
 16 27  1  0
 17 28  1  0
 18 29  1  0
 20 30  1  1
 20 31  1  0
 21 32  1  1
 21 33  1  0
 21 34  1  0
 22 35  1  1
 22 36  1  0
 22 37  1  0
M  END
>  <Pose ID>  (446)
365

>  <Score>  (446)
-5.550948143005371

>  <smiles>  (446)
CCc1nc2[nH]cc(Oc3cc4ncccn4n3)cc-2c1C

$$$$

     RDKit          3D

 38 41  0  0  0  0  0  0  0  0999 V2000
   26.6720    8.0300   -9.2490 C   0  0  0  0  0  0  0  0  0  0  0  0
   27.1770    6.8980   -9.8780 C   0  0  0  0  0  0  0  0  0  0  0  0
   28.1360    7.0250  -10.8740 N   0  0  0  0  0  0  0  0  0  0  0  0
   28.5980    8.2860  -11.2410 C   0  0  0  0  0  0  0  0  0  0  0  0
   25.6810    7.7240   -8.2230 O   0  0  0  0  0  0  0  0  0  0  0  0
   28.0900    9.4180  -10.6090 C   0  0  0  0  0  0  0  0  0  0  0  0
   27.1310    9.2870   -9.6130 C   0  0  0  0  0  0  0  0  0  0  0  0
   29.5060    8.6610  -12.1590 N   0  0  0  0  0  0  0  0  0  0  0  0
   29.6070   10.0350  -12.1480 C   0  0  0  0  0  0  0  0  0  0  0  0
   28.6650   10.3520  -11.1430 C   0  0  0  0  0  0  0  0  0  0  0  0
   25.2420    8.6370   -7.2560 C   0  0  0  0  0  0  0  0  0  0  0  0
   24.9310    9.9160   -7.6920 N   0  0  0  0  0  0  0  0  0  0  0  0
   24.5540   10.6610   -6.5910 N   0  0  0  0  0  0  0  0  0  0  0  0
   24.6170    9.8750   -5.5050 C   0  0  0  0  0  0  0  0  0  0  0  0
   25.0120    8.6580   -5.8920 C   0  0  0  0  0  0  0  0  0  0  0  0
   24.1820   11.9410   -6.6150 C   0  0  0  0  0  0  0  0  0  0  0  0
   24.1410   12.6860   -7.7890 C   0  0  0  0  0  0  0  0  0  0  0  0
   23.5370   12.4060   -5.4770 N   0  0  0  0  0  0  0  0  0  0  0  0
   23.4550   13.8940   -7.8220 C   0  0  0  0  0  0  0  0  0  0  0  0
   22.8100   14.3580   -6.6820 C   0  0  0  0  0  0  0  0  0  0  0  0
   22.8540   13.6120   -5.5100 C   0  0  0  0  0  0  0  0  0  0  0  0
   30.4770   10.9470  -12.9770 C   0  0  1  0  0  0  0  0  0  0  0  0
   22.1560   14.1160   -4.2710 C   0  0  1  0  0  0  0  0  0  0  0  0
   26.8165    5.9005   -9.5864 H   0  0  0  0  0  0  0  0  0  0  0  0
   28.5060    6.1853  -11.3419 H   0  0  0  0  0  0  0  0  0  0  0  0
   26.7346   10.1823   -9.1117 H   0  0  0  0  0  0  0  0  0  0  0  0
   28.4597   11.3937  -10.8554 H   0  0  0  0  0  0  0  0  0  0  0  0
   24.3838   10.1797   -4.4741 H   0  0  0  0  0  0  0  0  0  0  0  0
   25.1365    7.7954   -5.2209 H   0  0  0  0  0  0  0  0  0  0  0  0
   24.6517   12.3188   -8.6914 H   0  0  0  0  0  0  0  0  0  0  0  0
   23.4225   14.4829   -8.7505 H   0  0  0  0  0  0  0  0  0  0  0  0
   22.2658   15.3136   -6.7070 H   0  0  0  0  0  0  0  0  0  0  0  0
   31.0818   11.5810  -12.3120 H   0  0  0  0  0  0  0  0  0  0  0  0
   31.1416   10.3425  -13.6117 H   0  0  0  0  0  0  0  0  0  0  0  0
   29.8419   11.5824  -13.6117 H   0  0  0  0  0  0  0  0  0  0  0  0
   22.6769   13.7399   -3.3781 H   0  0  0  0  0  0  0  0  0  0  0  0
   22.1669   15.2159   -4.2658 H   0  0  0  0  0  0  0  0  0  0  0  0
   21.1153   13.7596   -4.2658 H   0  0  0  0  0  0  0  0  0  0  0  0
  5  1  1  0
  5 11  1  0
  1  2  2  0
  1  7  1  0
  2  3  1  0
  3  4  1  0
  4  8  2  0
  4  6  1  0
  6 10  1  0
  6  7  2  0
  8  9  1  0
  9 22  1  0
  9 10  2  0
 11 12  2  0
 11 15  1  0
 12 13  1  0
 13 16  1  0
 13 14  1  0
 14 15  2  0
 16 17  2  0
 16 18  1  0
 17 19  1  0
 18 21  2  0
 19 20  2  0
 20 21  1  0
 21 23  1  0
  2 24  1  0
  3 25  1  0
  7 26  1  0
 10 27  1  0
 14 28  1  0
 15 29  1  0
 17 30  1  0
 19 31  1  0
 20 32  1  0
 22 33  1  1
 22 34  1  0
 22 35  1  0
 23 36  1  1
 23 37  1  0
 23 38  1  0
M  END
>  <Pose ID>  (447)
450

>  <Score>  (447)
-5.543352127075195

>  <smiles>  (447)
Cc1cccc(-n2ccc(Oc3c[nH]c4nc(C)cc-4c3)n2)n1

$$$$

     RDKit          3D

 32 35  0  0  0  0  0  0  0  0999 V2000
   27.8470    7.8210  -10.2470 C   0  0  0  0  0  0  0  0  0  0  0  0
   28.8230    7.1170  -10.9400 C   0  0  0  0  0  0  0  0  0  0  0  0
   29.6550    7.7810  -11.8350 N   0  0  0  0  0  0  0  0  0  0  0  0
   29.5110    9.1480  -12.0350 C   0  0  0  0  0  0  0  0  0  0  0  0
   27.0630    6.9840   -9.3430 O   0  0  0  0  0  0  0  0  0  0  0  0
   28.5330    9.8530  -11.3400 C   0  0  0  0  0  0  0  0  0  0  0  0
   27.7030    9.1890  -10.4450 C   0  0  0  0  0  0  0  0  0  0  0  0
   30.1840   10.0000  -12.8340 N   0  0  0  0  0  0  0  0  0  0  0  0
   29.6570   11.2620  -12.6790 C   0  0  0  0  0  0  0  0  0  0  0  0
   28.6450   11.0020  -11.7300 C   0  0  0  0  0  0  0  0  0  0  0  0
   26.2340    7.4810   -8.3310 C   0  0  0  0  0  0  0  0  0  0  0  0
   25.3950    8.5330   -8.6630 N   0  0  0  0  0  0  0  0  0  0  0  0
   24.7330    8.8670   -7.5860 N   0  0  0  0  0  0  0  0  0  0  0  0
   25.0370    8.1050   -6.4640 C   0  0  0  0  0  0  0  0  0  0  0  0
   25.9770    7.2250   -6.9960 C   0  0  0  0  0  0  0  0  0  0  0  0
   23.7840    9.8790   -7.5010 C   0  0  0  0  0  0  0  0  0  0  0  0
   23.1390   10.1300   -6.2960 C   0  0  0  0  0  0  0  0  0  0  0  0
   23.4430    9.3680   -5.1740 C   0  0  0  0  0  0  0  0  0  0  0  0
   24.3930    8.3550   -5.2590 C   0  0  0  0  0  0  0  0  0  0  0  0
   27.7410   12.0980  -11.2200 C   0  0  1  0  0  0  0  0  0  0  0  0
   28.9380    6.0346  -10.7811 H   0  0  0  0  0  0  0  0  0  0  0  0
   30.3783    7.2588  -12.3498 H   0  0  0  0  0  0  0  0  0  0  0  0
   26.9318    9.7463   -9.8931 H   0  0  0  0  0  0  0  0  0  0  0  0
   29.9442   12.2086  -13.1602 H   0  0  0  0  0  0  0  0  0  0  0  0
   26.4588    6.4202   -6.4214 H   0  0  0  0  0  0  0  0  0  0  0  0
   23.5432   10.4821   -8.3889 H   0  0  0  0  0  0  0  0  0  0  0  0
   22.3883   10.9313   -6.2301 H   0  0  0  0  0  0  0  0  0  0  0  0
   22.9330    9.5657   -4.2197 H   0  0  0  0  0  0  0  0  0  0  0  0
   24.6342    7.7517   -4.3714 H   0  0  0  0  0  0  0  0  0  0  0  0
   27.7444   12.0939  -10.1200 H   0  0  0  0  0  0  0  0  0  0  0  0
   28.1028   13.0709  -11.5842 H   0  0  0  0  0  0  0  0  0  0  0  0
   26.7171   11.9279  -11.5842 H   0  0  0  0  0  0  0  0  0  0  0  0
  1  2  2  0
  1  7  1  0
  1  5  1  0
  2  3  1  0
  3  4  1  0
  4  8  2  0
  4  6  1  0
  6 10  1  0
  6  7  2  0
  8  9  1  0
  9 10  2  0
 10 20  1  0
  5 11  1  0
 11 12  2  0
 11 15  1  0
 12 13  1  0
 13 16  1  0
 13 14  1  0
 14 15  2  0
 14 19  1  0
 16 17  2  0
 17 18  1  0
 18 19  2  0
  2 21  1  0
  3 22  1  0
  7 23  1  0
  9 24  1  0
 15 25  1  0
 16 26  1  0
 17 27  1  0
 18 28  1  0
 19 29  1  0
 20 30  1  1
 20 31  1  0
 20 32  1  0
M  END
>  <Pose ID>  (448)
330

>  <Score>  (448)
-5.539749622344971

>  <smiles>  (448)
Cc1cnc2[nH]cc(Oc3cc4ccccn4n3)cc1-2

$$$$

     RDKit          3D

 41 44  0  0  0  0  0  0  0  0999 V2000
   27.3060    8.4290  -10.0930 C   0  0  0  0  0  0  0  0  0  0  0  0
   28.1420    7.4090  -10.5290 C   0  0  0  0  0  0  0  0  0  0  0  0
   29.1750    7.6880  -11.4140 N   0  0  0  0  0  0  0  0  0  0  0  0
   29.3720    8.9880  -11.8660 C   0  0  0  0  0  0  0  0  0  0  0  0
   26.2760    7.9750   -9.1600 O   0  0  0  0  0  0  0  0  0  0  0  0
   28.5330   10.0090  -11.4310 C   0  0  0  0  0  0  0  0  0  0  0  0
   27.5020    9.7280  -10.5450 C   0  0  0  0  0  0  0  0  0  0  0  0
   30.2870    9.5010  -12.7120 N   0  0  0  0  0  0  0  0  0  0  0  0
   30.0600   10.8520  -12.8450 C   0  0  0  0  0  0  0  0  0  0  0  0
   28.9390   11.0070  -11.9980 C   0  0  0  0  0  0  0  0  0  0  0  0
   25.5100    8.8280   -8.3610 C   0  0  0  0  0  0  0  0  0  0  0  0
   24.9680    9.9490   -8.9740 N   0  0  0  0  0  0  0  0  0  0  0  0
   24.2780   10.6660   -8.0120 N   0  0  0  0  0  0  0  0  0  0  0  0
   24.3730   10.0110   -6.8470 C   0  0  0  0  0  0  0  0  0  0  0  0
   25.0910    8.9020   -7.0440 C   0  0  0  0  0  0  0  0  0  0  0  0
   23.6060   11.8940   -8.3530 C   0  0  1  0  0  0  0  0  0  0  0  0
   23.9090   10.2370   -5.5810 N   0  0  0  0  0  0  0  0  0  0  0  0
   24.4900   10.1550   -4.2320 C   0  0  1  0  0  0  0  0  0  0  0  0
   23.8120    9.3810   -3.2160 C   0  0  1  0  0  0  0  0  0  0  0  0
   22.3430    9.9230   -3.0150 C   0  0  1  0  0  0  0  0  0  0  0  0
   21.5890    9.6700   -4.3080 C   0  0  1  0  0  0  0  0  0  0  0  0
   22.4820   10.6570   -5.4890 C   0  0  1  0  0  0  0  0  0  0  0  0
   27.9857    6.3800  -10.1731 H   0  0  0  0  0  0  0  0  0  0  0  0
   29.7956    6.9315  -11.7358 H   0  0  0  0  0  0  0  0  0  0  0  0
   26.8391   10.5352  -10.2002 H   0  0  0  0  0  0  0  0  0  0  0  0
   30.5997   11.6012  -13.4429 H   0  0  0  0  0  0  0  0  0  0  0  0
   28.4554   11.9850  -11.8575 H   0  0  0  0  0  0  0  0  0  0  0  0
   25.3171    8.1540   -6.2698 H   0  0  0  0  0  0  0  0  0  0  0  0
   23.3172   12.4218   -7.4322 H   0  0  0  0  0  0  0  0  0  0  0  0
   24.2818   12.5300   -8.9436 H   0  0  0  0  0  0  0  0  0  0  0  0
   22.7060   11.6677   -8.9436 H   0  0  0  0  0  0  0  0  0  0  0  0
   25.4977    9.7278   -4.3419 H   0  0  0  0  0  0  0  0  0  0  0  0
   24.4278   11.1876   -3.8580 H   0  0  0  0  0  0  0  0  0  0  0  0
   23.7719    8.3268   -3.5274 H   0  0  0  0  0  0  0  0  0  0  0  0
   24.3623    9.4692   -2.2677 H   0  0  0  0  0  0  0  0  0  0  0  0
   21.8556    9.3912   -2.1845 H   0  0  0  0  0  0  0  0  0  0  0  0
   22.3529   10.9960   -2.7729 H   0  0  0  0  0  0  0  0  0  0  0  0
   21.6174    8.6047   -4.5807 H   0  0  0  0  0  0  0  0  0  0  0  0
   20.5214    9.9276   -4.2457 H   0  0  0  0  0  0  0  0  0  0  0  0
   22.4387   11.7117   -5.1795 H   0  0  0  0  0  0  0  0  0  0  0  0
   22.0168   10.5203   -6.4763 H   0  0  0  0  0  0  0  0  0  0  0  0
 11  5  1  0
 11 12  2  0
 11 15  1  0
 12 13  1  0
 13 16  1  0
 13 14  1  0
 14 15  2  0
 14 17  1  0
 17 22  1  0
 17 18  1  0
 18 19  1  0
 19 20  1  0
 20 21  1  0
 21 22  1  0
  5  1  1  0
  1  7  1  0
  1  2  2  0
  2  3  1  0
  3  4  1  0
  4  8  2  0
  4  6  1  0
  6 10  1  0
  6  7  2  0
  8  9  1  0
  9 10  2  0
  2 23  1  0
  3 24  1  0
  7 25  1  0
  9 26  1  0
 10 27  1  0
 15 28  1  0
 16 29  1  1
 16 30  1  0
 16 31  1  0
 18 32  1  6
 18 33  1  0
 19 34  1  6
 19 35  1  0
 20 36  1  1
 20 37  1  0
 21 38  1  6
 21 39  1  0
 22 40  1  1
 22 41  1  0
M  END
>  <Pose ID>  (449)
549

>  <Score>  (449)
-5.539510250091553

>  <smiles>  (449)
Cn1nc(Oc2c[nH]c3nccc-3c2)cc1N1CCCCC1

$$$$

     RDKit          3D

 27 29  0  0  0  0  0  0  0  0999 V2000
   27.4930    7.7330   -9.7900 C   0  0  0  0  0  0  0  0  0  0  0  0
   26.7430    6.7960   -9.0920 N   0  0  0  0  0  0  0  0  0  0  0  0
   26.0160    7.1810   -7.9730 C   0  0  0  0  0  0  0  0  0  0  0  0
   25.3360    6.1860   -7.3260 C   0  0  0  0  0  0  0  0  0  0  0  0
   24.5680    6.4640   -6.2030 N   0  0  0  0  0  0  0  0  0  0  0  0
   24.4910    7.7620   -5.7180 C   0  0  0  0  0  0  0  0  0  0  0  0
   25.1840    8.7860   -6.3540 C   0  0  0  0  0  0  0  0  0  0  0  0
   26.0400    8.5050   -7.5520 C   0  0  0  0  0  0  0  0  0  0  0  0
   27.5190    9.0580   -9.3680 C   0  0  0  0  0  0  0  0  0  0  0  0
   26.7910    9.4430   -8.2500 C   0  0  0  0  0  0  0  0  0  0  0  0
   28.2820    7.6010  -10.9080 N   0  0  0  0  0  0  0  0  0  0  0  0
   28.9970    8.4460  -11.5410 C   0  0  0  0  0  0  0  0  0  0  0  0
   30.3930    8.4270  -11.6950 N   0  0  0  0  0  0  0  0  0  0  0  0
   30.7000    9.5130  -12.4120 O   0  0  0  0  0  0  0  0  0  0  0  0
   29.6510   10.1900  -12.7230 C   0  0  0  0  0  0  0  0  0  0  0  0
   28.5360    9.5240  -12.2160 C   0  0  0  0  0  0  0  0  0  0  0  0
   23.6540    8.0620   -4.5000 C   0  0  1  0  0  0  0  0  0  0  0  0
   25.3983    5.1533   -7.6997 H   0  0  0  0  0  0  0  0  0  0  0  0
   25.1031    9.8149   -5.9734 H   0  0  0  0  0  0  0  0  0  0  0  0
   28.1155    9.7999   -9.9191 H   0  0  0  0  0  0  0  0  0  0  0  0
   26.8088   10.4911   -7.9167 H   0  0  0  0  0  0  0  0  0  0  0  0
   28.2985    6.6507  -11.3049 H   0  0  0  0  0  0  0  0  0  0  0  0
   29.6364   11.1319  -13.2910 H   0  0  0  0  0  0  0  0  0  0  0  0
   27.4835    9.8185  -12.3409 H   0  0  0  0  0  0  0  0  0  0  0  0
   24.2390    7.8523   -3.5924 H   0  0  0  0  0  0  0  0  0  0  0  0
   23.3593    9.1217   -4.5096 H   0  0  0  0  0  0  0  0  0  0  0  0
   22.7532    7.4308   -4.5096 H   0  0  0  0  0  0  0  0  0  0  0  0
  1 11  1  0
  1  9  1  0
  1  2  2  0
  2  3  1  0
  3  8  2  0
  3  4  1  0
  4  5  2  0
  5  6  1  0
  6  7  2  0
  6 17  1  0
  7  8  1  0
  8 10  1  0
  9 10  2  0
 11 12  1  0
 12 16  1  0
 12 13  2  0
 13 14  1  0
 14 15  1  0
 15 16  2  0
  4 18  1  0
  7 19  1  0
  9 20  1  0
 10 21  1  0
 11 22  1  0
 15 23  1  0
 16 24  1  0
 17 25  1  1
 17 26  1  0
 17 27  1  0
M  END
>  <Pose ID>  (450)
22

>  <Score>  (450)
-5.536694049835205

>  <smiles>  (450)
Cc1cc2ccc(Nc3ccon3)nc2cn1

$$$$

     RDKit          3D

 24 25  0  0  0  0  0  0  0  0999 V2000
   26.0020    7.6900   -8.5130 C   0  0  0  0  0  0  0  0  0  0  0  0
   25.6050    8.9890   -8.7970 N   0  0  0  0  0  0  0  0  0  0  0  0
   27.0990    7.1390   -9.1630 N   0  0  0  0  0  0  0  0  0  0  0  0
   26.3040    9.7410   -9.7350 C   0  0  0  0  0  0  0  0  0  0  0  0
   25.8590   11.0380   -9.9300 O   0  0  0  0  0  0  0  0  0  0  0  0
   27.7990    7.8890  -10.1020 C   0  0  0  0  0  0  0  0  0  0  0  0
   27.4010    9.1880  -10.3870 C   0  0  0  0  0  0  0  0  0  0  0  0
   26.5360   12.1120  -10.5530 C   0  0  0  0  0  0  0  0  0  0  0  0
   27.1830   11.7850  -11.7400 N   0  0  0  0  0  0  0  0  0  0  0  0
   27.8120   12.9490  -12.1860 N   0  0  0  0  0  0  0  0  0  0  0  0
   27.5530   13.9370  -11.3290 C   0  0  0  0  0  0  0  0  0  0  0  0
   26.7730   13.4490  -10.3530 C   0  0  0  0  0  0  0  0  0  0  0  0
   28.5780   12.9360  -13.4110 C   0  0  1  0  0  0  0  0  0  0  0  0
   30.1060   12.9660  -13.2320 C   0  0  1  0  0  0  0  0  0  0  0  0
   25.4472    7.0958   -7.7720 H   0  0  0  0  0  0  0  0  0  0  0  0
   28.6671    7.4533  -10.6183 H   0  0  0  0  0  0  0  0  0  0  0  0
   27.9543    9.7811  -11.1300 H   0  0  0  0  0  0  0  0  0  0  0  0
   27.9159   14.9724  -11.4085 H   0  0  0  0  0  0  0  0  0  0  0  0
   26.3789   14.0373   -9.5112 H   0  0  0  0  0  0  0  0  0  0  0  0
   28.3186   12.0213  -13.9642 H   0  0  0  0  0  0  0  0  0  0  0  0
   28.3161   13.8624  -13.9431 H   0  0  0  0  0  0  0  0  0  0  0  0
   30.3495   12.9708  -12.1593 H   0  0  0  0  0  0  0  0  0  0  0  0
   30.5480   12.0764  -13.7044 H   0  0  0  0  0  0  0  0  0  0  0  0
   30.5128   13.8723  -13.7044 H   0  0  0  0  0  0  0  0  0  0  0  0
  5  8  1  0
  5  4  1  0
  1  3  2  0
  1  2  1  0
  2  4  2  0
  3  6  1  0
  4  7  1  0
  6  7  2  0
  8  9  2  0
  8 12  1  0
  9 10  1  0
 10 13  1  0
 10 11  1  0
 11 12  2  0
 13 14  1  0
  1 15  1  0
  6 16  1  0
  7 17  1  0
 11 18  1  0
 12 19  1  0
 13 20  1  6
 13 21  1  0
 14 22  1  1
 14 23  1  0
 14 24  1  0
M  END
>  <Pose ID>  (451)
1

>  <Score>  (451)
-5.535335063934326

>  <smiles>  (451)
CCn1ccc(Oc2ccncn2)n1

$$$$

     RDKit          3D

 30 32  0  0  0  0  0  0  0  0999 V2000
   27.2810    7.8880  -10.1970 C   0  0  0  0  0  0  0  0  0  0  0  0
   28.3990    7.1440  -10.5440 C   0  0  0  0  0  0  0  0  0  0  0  0
   29.3810    7.7030  -11.3510 N   0  0  0  0  0  0  0  0  0  0  0  0
   26.4840    7.1470   -9.4120 N   0  0  0  0  0  0  0  0  0  0  0  0
   29.2470    9.0090  -11.8090 C   0  0  0  0  0  0  0  0  0  0  0  0
   28.1280    9.7530  -11.4600 C   0  0  0  0  0  0  0  0  0  0  0  0
   27.1440    9.1960  -10.6550 C   0  0  0  0  0  0  0  0  0  0  0  0
   30.0510    9.7560  -12.5850 N   0  0  0  0  0  0  0  0  0  0  0  0
   29.4720   10.9930  -12.7580 C   0  0  0  0  0  0  0  0  0  0  0  0
   28.2870   10.8280  -12.0100 C   0  0  0  0  0  0  0  0  0  0  0  0
   25.8880    7.6430   -8.2130 C   0  0  0  0  0  0  0  0  0  0  0  0
   25.2530    6.7400   -7.3680 N   0  0  0  0  0  0  0  0  0  0  0  0
   24.5590    7.1990   -6.2550 C   0  0  0  0  0  0  0  0  0  0  0  0
   24.5010    8.5620   -5.9860 C   0  0  0  0  0  0  0  0  0  0  0  0
   25.1370    9.4650   -6.8310 C   0  0  0  0  0  0  0  0  0  0  0  0
   25.8540    9.0000   -7.9290 C   0  0  0  0  0  0  0  0  0  0  0  0
   23.9920    6.3900   -5.4990 O   0  0  0  0  0  0  0  0  0  0  0  0
   23.7490    9.0610   -4.7770 C   0  0  1  0  0  0  0  0  0  0  0  0
   28.5076    6.1116  -10.1801 H   0  0  0  0  0  0  0  0  0  0  0  0
   30.2099    7.1494  -11.6107 H   0  0  0  0  0  0  0  0  0  0  0  0
   26.2929    6.1732   -9.6877 H   0  0  0  0  0  0  0  0  0  0  0  0
   26.2578    9.7865  -10.3794 H   0  0  0  0  0  0  0  0  0  0  0  0
   29.8325   11.8660  -13.3218 H   0  0  0  0  0  0  0  0  0  0  0  0
   27.5416   11.6327  -11.9275 H   0  0  0  0  0  0  0  0  0  0  0  0
   25.2969    5.7304   -7.5670 H   0  0  0  0  0  0  0  0  0  0  0  0
   25.0733   10.5449   -6.6317 H   0  0  0  0  0  0  0  0  0  0  0  0
   26.3946    9.7096   -8.5726 H   0  0  0  0  0  0  0  0  0  0  0  0
   24.2587    8.7228   -3.8628 H   0  0  0  0  0  0  0  0  0  0  0  0
   23.7166   10.1604   -4.7934 H   0  0  0  0  0  0  0  0  0  0  0  0
   22.7234    8.6637   -4.7934 H   0  0  0  0  0  0  0  0  0  0  0  0
  4  1  1  0
  4 11  1  0
  1  7  1  0
  1  2  2  0
  2  3  1  0
  3  5  1  0
  5  8  2  0
  5  6  1  0
  6 10  1  0
  6  7  2  0
  8  9  1  0
  9 10  2  0
 11 16  2  0
 11 12  1  0
 12 13  1  0
 13 14  1  0
 13 17  2  0
 14 15  2  0
 14 18  1  0
 15 16  1  0
  2 19  1  0
  3 20  1  0
  4 21  1  0
  7 22  1  0
  9 23  1  0
 10 24  1  0
 12 25  1  0
 15 26  1  0
 16 27  1  0
 18 28  1  1
 18 29  1  0
 18 30  1  0
M  END
>  <Pose ID>  (452)
92

>  <Score>  (452)
-5.530078887939453

>  <smiles>  (452)
Cc1ccc(Nc2c[nH]c3nccc-3c2)[nH]c1=O

$$$$

     RDKit          3D

 19 20  0  0  0  0  0  0  0  0999 V2000
   27.8650    7.2860  -10.2950 C   0  0  0  0  0  0  0  0  0  0  0  0
   27.0570    6.9730   -9.2070 N   0  0  0  0  0  0  0  0  0  0  0  0
   26.2750    7.9580   -8.6170 C   0  0  0  0  0  0  0  0  0  0  0  0
   26.2990    9.2550   -9.1140 C   0  0  0  0  0  0  0  0  0  0  0  0
   25.3940   10.2000   -8.5540 C   0  0  0  0  0  0  0  0  0  0  0  0
   24.6230    9.8660   -7.4470 C   0  0  0  0  0  0  0  0  0  0  0  0
   24.6910    8.5850   -6.9130 N   0  0  0  0  0  0  0  0  0  0  0  0
   25.4980    7.6200   -7.4750 C   0  0  0  0  0  0  0  0  0  0  0  0
   27.8890    8.5840  -10.7910 C   0  0  0  0  0  0  0  0  0  0  0  0
   27.1060    9.5680  -10.2010 C   0  0  0  0  0  0  0  0  0  0  0  0
   25.2690   11.5720   -9.1680 C   0  0  1  0  0  0  0  0  0  0  0  0
   28.4846    6.5066  -10.7626 H   0  0  0  0  0  0  0  0  0  0  0  0
   23.9586   10.6161   -6.9933 H   0  0  0  0  0  0  0  0  0  0  0  0
   25.5405    6.6070   -7.0483 H   0  0  0  0  0  0  0  0  0  0  0  0
   28.5283    8.8322  -11.6511 H   0  0  0  0  0  0  0  0  0  0  0  0
   27.1248   10.5951  -10.5943 H   0  0  0  0  0  0  0  0  0  0  0  0
   25.2003   12.3260   -8.3700 H   0  0  0  0  0  0  0  0  0  0  0  0
   26.1522   11.7768   -9.7909 H   0  0  0  0  0  0  0  0  0  0  0  0
   24.3633   11.6138   -9.7909 H   0  0  0  0  0  0  0  0  0  0  0  0
  1  9  2  0
  1  2  1  0
  2  3  2  0
  3  4  1  0
  3  8  1  0
  4 10  2  0
  4  5  1  0
  5 11  1  0
  5  6  2  0
  6  7  1  0
  7  8  2  0
  9 10  1  0
  1 12  1  0
  6 13  1  0
  8 14  1  0
  9 15  1  0
 10 16  1  0
 11 17  1  1
 11 18  1  0
 11 19  1  0
M  END
>  <Pose ID>  (453)
40

>  <Score>  (453)
-5.5276055335998535

>  <smiles>  (453)
Cc1cncc2ncccc12

$$$$

     RDKit          3D

 38 41  0  0  0  0  0  0  0  0999 V2000
   28.1190    7.8890  -10.5440 C   0  0  0  0  0  0  0  0  0  0  0  0
   28.9680    7.0880  -11.2970 C   0  0  0  0  0  0  0  0  0  0  0  0
   29.8850    7.6710  -12.1660 N   0  0  0  0  0  0  0  0  0  0  0  0
   29.9540    9.0520  -12.2770 C   0  0  0  0  0  0  0  0  0  0  0  0
   27.2230    7.1260   -9.6780 O   0  0  0  0  0  0  0  0  0  0  0  0
   29.1030    9.8550  -11.5220 C   0  0  0  0  0  0  0  0  0  0  0  0
   28.1870    9.2710  -10.6560 C   0  0  0  0  0  0  0  0  0  0  0  0
   30.7430    9.8380  -13.0350 N   0  0  0  0  0  0  0  0  0  0  0  0
   30.4190   11.1570  -12.7930 C   0  0  0  0  0  0  0  0  0  0  0  0
   29.3880   10.9940  -11.8440 C   0  0  0  0  0  0  0  0  0  0  0  0
   26.4900    7.6800   -8.6230 C   0  0  0  0  0  0  0  0  0  0  0  0
   25.8230    8.8680   -8.8740 N   0  0  0  0  0  0  0  0  0  0  0  0
   25.1940    9.2590   -7.7060 N   0  0  0  0  0  0  0  0  0  0  0  0
   25.4470    8.3400   -6.7620 C   0  0  0  0  0  0  0  0  0  0  0  0
   26.2080    7.3830   -7.3000 C   0  0  0  0  0  0  0  0  0  0  0  0
   24.4510   10.3120   -7.5700 C   0  0  0  0  0  0  0  0  0  0  0  0
   23.8400   10.6390   -6.3660 C   0  0  0  0  0  0  0  0  0  0  0  0
   24.3470   11.1710   -8.6580 N   0  0  0  0  0  0  0  0  0  0  0  0
   23.6320   12.3590   -8.5400 C   0  0  0  0  0  0  0  0  0  0  0  0
   23.0220   12.6850   -7.3340 C   0  0  0  0  0  0  0  0  0  0  0  0
   23.1700   11.8570   -6.2450 C   0  0  0  0  0  0  0  0  0  0  0  0
   22.6030   12.2720   -4.9110 C   0  0  1  0  0  0  0  0  0  0  0  0
   23.0020   13.6590   -4.4230 C   0  0  1  0  0  0  0  0  0  0  0  0
   28.9154    5.9930  -11.2063 H   0  0  0  0  0  0  0  0  0  0  0  0
   30.5125    7.0772  -12.7268 H   0  0  0  0  0  0  0  0  0  0  0  0
   27.5149    9.9044  -10.0584 H   0  0  0  0  0  0  0  0  0  0  0  0
   30.8448   12.0770  -13.2199 H   0  0  0  0  0  0  0  0  0  0  0  0
   28.8636   11.8596  -11.4131 H   0  0  0  0  0  0  0  0  0  0  0  0
   25.0889    8.3695   -5.7223 H   0  0  0  0  0  0  0  0  0  0  0  0
   26.5604    6.4869   -6.7681 H   0  0  0  0  0  0  0  0  0  0  0  0
   23.8840    9.9434   -5.5150 H   0  0  0  0  0  0  0  0  0  0  0  0
   23.5495   13.0396   -9.4002 H   0  0  0  0  0  0  0  0  0  0  0  0
   22.4221   13.6032   -7.2505 H   0  0  0  0  0  0  0  0  0  0  0  0
   21.5060   12.2437   -4.9871 H   0  0  0  0  0  0  0  0  0  0  0  0
   23.0191   11.5661   -4.1771 H   0  0  0  0  0  0  0  0  0  0  0  0
   23.0062   13.6736   -3.3231 H   0  0  0  0  0  0  0  0  0  0  0  0
   24.0071   13.9041   -4.7968 H   0  0  0  0  0  0  0  0  0  0  0  0
   22.2808   14.4007   -4.7968 H   0  0  0  0  0  0  0  0  0  0  0  0
 11  5  1  0
 11 12  2  0
 11 15  1  0
 12 13  1  0
 13 16  1  0
 13 14  1  0
 14 15  2  0
 16 18  1  0
 16 17  2  0
 17 21  1  0
 18 19  2  0
 19 20  1  0
 20 21  2  0
 21 22  1  0
 22 23  1  0
  5  1  1  0
  1  2  2  0
  1  7  1  0
  2  3  1  0
  3  4  1  0
  4  8  2  0
  4  6  1  0
  6 10  1  0
  6  7  2  0
  8  9  1  0
  9 10  2  0
  2 24  1  0
  3 25  1  0
  7 26  1  0
  9 27  1  0
 10 28  1  0
 14 29  1  0
 15 30  1  0
 17 31  1  0
 19 32  1  0
 20 33  1  0
 22 34  1  6
 22 35  1  0
 23 36  1  1
 23 37  1  0
 23 38  1  0
M  END
>  <Pose ID>  (454)
389

>  <Score>  (454)
-5.524569988250732

>  <smiles>  (454)
CCc1ccnc(-n2ccc(Oc3c[nH]c4nccc-4c3)n2)c1

$$$$

     RDKit          3D

 19 20  0  0  0  0  0  0  0  0999 V2000
   28.1690    7.2000  -10.4970 C   0  0  0  0  0  0  0  0  0  0  0  0
   27.2300    6.9840   -9.4930 N   0  0  0  0  0  0  0  0  0  0  0  0
   26.4650    8.0430   -9.0180 C   0  0  0  0  0  0  0  0  0  0  0  0
   26.6370    9.3160   -9.5460 C   0  0  0  0  0  0  0  0  0  0  0  0
   25.7500   10.3410   -9.1140 C   0  0  0  0  0  0  0  0  0  0  0  0
   24.8450   10.1020   -8.0860 C   0  0  0  0  0  0  0  0  0  0  0  0
   24.7630    8.8400   -7.5130 N   0  0  0  0  0  0  0  0  0  0  0  0
   25.5510    7.8010   -7.9570 C   0  0  0  0  0  0  0  0  0  0  0  0
   28.3400    8.4750  -11.0240 C   0  0  0  0  0  0  0  0  0  0  0  0
   27.5740    9.5320  -10.5490 C   0  0  0  0  0  0  0  0  0  0  0  0
   29.3580    8.7100  -12.1120 C   0  0  1  0  0  0  0  0  0  0  0  0
   28.7753    6.3628  -10.8732 H   0  0  0  0  0  0  0  0  0  0  0  0
   25.7804   11.3291   -9.5965 H   0  0  0  0  0  0  0  0  0  0  0  0
   24.1940   10.9126   -7.7267 H   0  0  0  0  0  0  0  0  0  0  0  0
   25.4743    6.8037   -7.4993 H   0  0  0  0  0  0  0  0  0  0  0  0
   27.7093   10.5404  -10.9671 H   0  0  0  0  0  0  0  0  0  0  0  0
   30.3343    8.9354  -11.6581 H   0  0  0  0  0  0  0  0  0  0  0  0
   29.4430    7.8079  -12.7356 H   0  0  0  0  0  0  0  0  0  0  0  0
   29.0390    9.5581  -12.7356 H   0  0  0  0  0  0  0  0  0  0  0  0
  1  9  2  0
  1  2  1  0
  2  3  2  0
  3  4  1  0
  3  8  1  0
  4 10  2  0
  4  5  1  0
  5  6  2  0
  6  7  1  0
  7  8  2  0
  9 11  1  0
  9 10  1  0
  1 12  1  0
  5 13  1  0
  6 14  1  0
  8 15  1  0
 10 16  1  0
 11 17  1  1
 11 18  1  0
 11 19  1  0
M  END
>  <Pose ID>  (455)
39

>  <Score>  (455)
-5.519458770751953

>  <smiles>  (455)
Cc1cnc2cnccc2c1

$$$$

     RDKit          3D

 39 41  0  0  0  0  0  0  0  0999 V2000
   28.0980    8.0700  -10.0520 C   0  0  0  0  0  0  0  0  0  0  0  0
   27.5350    7.2220   -9.1060 N   0  0  0  0  0  0  0  0  0  0  0  0
   26.2840    7.5060   -8.5740 C   0  0  0  0  0  0  0  0  0  0  0  0
   25.5930    8.6420   -8.9900 C   0  0  0  0  0  0  0  0  0  0  0  0
   26.1540    9.4870   -9.9360 N   0  0  0  0  0  0  0  0  0  0  0  0
   27.4030    9.2040  -10.4720 C   0  0  0  0  0  0  0  0  0  0  0  0
   24.4690    8.8950   -8.5120 O   0  0  0  0  0  0  0  0  0  0  0  0
   25.5300    6.8350   -7.6440 N   0  0  0  0  0  0  0  0  0  0  0  0
   24.9740    7.4250   -6.3290 C   0  0  0  0  0  0  0  0  0  0  0  0
   25.2800    8.7630   -6.1090 C   0  0  0  0  0  0  0  0  0  0  0  0
   24.7900    9.4150   -4.9830 N   0  0  0  0  0  0  0  0  0  0  0  0
   23.9930    8.7250   -4.0760 C   0  0  0  0  0  0  0  0  0  0  0  0
   23.6870    7.3870   -4.2950 C   0  0  0  0  0  0  0  0  0  0  0  0
   24.1790    6.7400   -5.4210 C   0  0  0  0  0  0  0  0  0  0  0  0
   23.4700    9.4220   -2.8740 C   0  0  0  0  0  0  0  0  0  0  0  0
   23.9850    9.2580   -1.7440 O   0  0  0  0  0  0  0  0  0  0  0  0
   22.2920   10.3320   -2.9510 N   0  0  0  0  0  0  0  0  0  0  0  0
   22.0670   11.4950   -2.0790 C   0  0  1  0  0  0  0  0  0  0  0  0
   21.5850   12.6840   -2.8830 C   0  0  1  0  0  0  0  0  0  0  0  0
   20.7480   11.9500   -3.9770 C   0  0  1  0  0  0  0  0  0  0  0  0
   21.5260   10.5020   -4.1760 C   0  0  1  0  0  0  0  0  0  0  0  0
   22.8220    6.6390   -3.3110 C   0  0  1  0  0  0  0  0  0  0  0  0
   29.0911    7.8471  -10.4693 H   0  0  0  0  0  0  0  0  0  0  0  0
   25.6424   10.3270  -10.2418 H   0  0  0  0  0  0  0  0  0  0  0  0
   27.8435    9.8726  -11.2262 H   0  0  0  0  0  0  0  0  0  0  0  0
   25.3151    5.8471   -7.8410 H   0  0  0  0  0  0  0  0  0  0  0  0
   25.9111    9.3070   -6.8272 H   0  0  0  0  0  0  0  0  0  0  0  0
   23.9377    5.6808   -5.5938 H   0  0  0  0  0  0  0  0  0  0  0  0
   21.3089   11.2387   -1.3243 H   0  0  0  0  0  0  0  0  0  0  0  0
   23.0172   11.7601   -1.5923 H   0  0  0  0  0  0  0  0  0  0  0  0
   20.9629   13.3604   -2.2785 H   0  0  0  0  0  0  0  0  0  0  0  0
   22.3823   13.3359   -3.2694 H   0  0  0  0  0  0  0  0  0  0  0  0
   19.7132   11.7941   -3.6380 H   0  0  0  0  0  0  0  0  0  0  0  0
   20.6791   12.5246   -4.9125 H   0  0  0  0  0  0  0  0  0  0  0  0
   22.1925   10.5351   -5.0505 H   0  0  0  0  0  0  0  0  0  0  0  0
   20.8271    9.6711   -4.3524 H   0  0  0  0  0  0  0  0  0  0  0  0
   23.1234    6.8997   -2.2857 H   0  0  0  0  0  0  0  0  0  0  0  0
   21.7685    6.9153   -3.4649 H   0  0  0  0  0  0  0  0  0  0  0  0
   22.9434    5.5566   -3.4649 H   0  0  0  0  0  0  0  0  0  0  0  0
  9  8  1  0
  9 10  2  0
  9 14  1  0
 10 11  1  0
 11 12  2  0
 12 13  1  0
 12 15  1  0
 13 14  2  0
 13 22  1  0
  1  6  2  0
  1  2  1  0
  2  3  2  0
  3  4  1  0
  3  8  1  0
  4  5  1  0
  4  7  2  0
  5  6  1  0
 15 17  1  0
 15 16  2  0
 17 21  1  0
 17 18  1  0
 18 19  1  0
 19 20  1  0
 20 21  1  0
  1 23  1  0
  5 24  1  0
  6 25  1  0
  8 26  1  0
 10 27  1  0
 14 28  1  0
 18 29  1  1
 18 30  1  0
 19 31  1  1
 19 32  1  0
 20 33  1  1
 20 34  1  0
 21 35  1  6
 21 36  1  0
 22 37  1  1
 22 38  1  0
 22 39  1  0
M  END
>  <Pose ID>  (456)
42

>  <Score>  (456)
-5.518920421600342

>  <smiles>  (456)
Cc1cc(Nc2ncc[nH]c2=O)cnc1C(=O)N1CCCC1

$$$$

     RDKit          3D

 37 39  0  0  0  0  0  0  0  0999 V2000
   27.8430    7.8900   -9.8160 C   0  0  0  0  0  0  0  0  0  0  0  0
   26.9280    6.8490   -9.8390 N   0  0  0  0  0  0  0  0  0  0  0  0
   26.1560    6.5730   -8.7190 C   0  0  0  0  0  0  0  0  0  0  0  0
   27.9870    8.6620   -8.6670 N   0  0  0  0  0  0  0  0  0  0  0  0
   26.3020    7.3440   -7.5680 C   0  0  0  0  0  0  0  0  0  0  0  0
   27.1360    8.3700   -7.5380 C   0  0  0  0  0  0  0  0  0  0  0  0
   28.5350    8.1380  -10.8210 O   0  0  0  0  0  0  0  0  0  0  0  0
   25.5710    7.0340   -6.4480 N   0  0  0  0  0  0  0  0  0  0  0  0
   24.3060    7.5760   -6.1270 C   0  0  0  0  0  0  0  0  0  0  0  0
   23.1690    6.8380   -5.8200 N   0  0  0  0  0  0  0  0  0  0  0  0
   21.9810    7.4920   -5.5150 C   0  0  0  0  0  0  0  0  0  0  0  0
   21.9320    8.8830   -5.5100 C   0  0  0  0  0  0  0  0  0  0  0  0
   23.0710    9.6180   -5.8160 C   0  0  0  0  0  0  0  0  0  0  0  0
   24.2650    8.9610   -6.0970 C   0  0  0  0  0  0  0  0  0  0  0  0
   20.6310    9.2970   -5.1730 C   0  0  0  0  0  0  0  0  0  0  0  0
   20.4200   10.3520   -4.3360 N   0  0  0  0  0  0  0  0  0  0  0  0
   19.4690    8.7430   -5.5880 O   0  0  0  0  0  0  0  0  0  0  0  0
   18.4990    9.5040   -4.9890 C   0  0  0  0  0  0  0  0  0  0  0  0
   19.0650   10.5200   -4.2050 C   0  0  0  0  0  0  0  0  0  0  0  0
   23.0130   11.1260   -5.8440 C   0  0  1  0  0  0  0  0  0  0  0  0
   24.4830   11.6580   -5.9090 C   0  0  1  0  0  0  0  0  0  0  0  0
   24.5240   13.1640   -5.9500 C   0  0  1  0  0  0  0  0  0  0  0  0
   25.4301    5.7468   -8.7402 H   0  0  0  0  0  0  0  0  0  0  0  0
   28.6819    9.4211   -8.6233 H   0  0  0  0  0  0  0  0  0  0  0  0
   27.1817    9.0079   -6.6430 H   0  0  0  0  0  0  0  0  0  0  0  0
   25.9764    6.3530   -5.7901 H   0  0  0  0  0  0  0  0  0  0  0  0
   21.0786    6.9096   -5.2773 H   0  0  0  0  0  0  0  0  0  0  0  0
   25.1778    9.5418   -6.2956 H   0  0  0  0  0  0  0  0  0  0  0  0
   17.4179    9.3394   -5.1077 H   0  0  0  0  0  0  0  0  0  0  0  0
   18.5379   11.2839   -3.6146 H   0  0  0  0  0  0  0  0  0  0  0  0
   22.4533   11.4629   -6.7290 H   0  0  0  0  0  0  0  0  0  0  0  0
   22.5044   11.5085   -4.9468 H   0  0  0  0  0  0  0  0  0  0  0  0
   25.0289   11.3096   -5.0198 H   0  0  0  0  0  0  0  0  0  0  0  0
   24.9483   11.2749   -6.8291 H   0  0  0  0  0  0  0  0  0  0  0  0
   24.5347   13.5586   -4.9233 H   0  0  0  0  0  0  0  0  0  0  0  0
   25.4314   13.4919   -6.4783 H   0  0  0  0  0  0  0  0  0  0  0  0
   23.6358   13.5407   -6.4783 H   0  0  0  0  0  0  0  0  0  0  0  0
  8  5  1  0
  8  9  1  0
  9 14  1  0
  9 10  2  0
 10 11  1  0
 11 12  2  0
 12 13  1  0
 12 15  1  0
 13 14  2  0
 13 20  1  0
  1  7  2  0
  1  2  1  0
  1  4  1  0
  2  3  2  0
  3  5  1  0
  4  6  1  0
  5  6  2  0
 15 17  1  0
 15 16  2  0
 16 19  1  0
 17 18  1  0
 18 19  2  0
 20 21  1  0
 21 22  1  0
  3 23  1  0
  4 24  1  0
  6 25  1  0
  8 26  1  0
 11 27  1  0
 14 28  1  0
 18 29  1  0
 19 30  1  0
 20 31  1  6
 20 32  1  0
 21 33  1  1
 21 34  1  0
 22 35  1  1
 22 36  1  0
 22 37  1  0
M  END
>  <Pose ID>  (457)
117

>  <Score>  (457)
-5.517739295959473

>  <smiles>  (457)
CCCc1cc(Nc2cnc(=O)[nH]c2)ncc1-c1ncco1

$$$$

     RDKit          3D

 38 41  0  0  0  0  0  0  0  0999 V2000
   27.7220    7.7940  -10.2800 C   0  0  0  0  0  0  0  0  0  0  0  0
   28.4730    7.0820  -11.2070 C   0  0  0  0  0  0  0  0  0  0  0  0
   29.3010    7.7580  -12.0960 N   0  0  0  0  0  0  0  0  0  0  0  0
   29.3800    9.1450  -12.0560 C   0  0  0  0  0  0  0  0  0  0  0  0
   26.9110    6.9400   -9.4180 O   0  0  0  0  0  0  0  0  0  0  0  0
   28.6280    9.8580  -11.1280 C   0  0  0  0  0  0  0  0  0  0  0  0
   27.8010    9.1810  -10.2390 C   0  0  0  0  0  0  0  0  0  0  0  0
   30.0990   10.0110  -12.7980 N   0  0  0  0  0  0  0  0  0  0  0  0
   29.8260   11.2920  -12.3730 C   0  0  0  0  0  0  0  0  0  0  0  0
   28.8950   11.0250  -11.3430 C   0  0  0  0  0  0  0  0  0  0  0  0
   26.3030    7.3700   -8.2340 C   0  0  0  0  0  0  0  0  0  0  0  0
   25.6330    8.5820   -8.2730 N   0  0  0  0  0  0  0  0  0  0  0  0
   25.1370    8.8350   -7.0070 N   0  0  0  0  0  0  0  0  0  0  0  0
   25.4730    7.8130   -6.2080 C   0  0  0  0  0  0  0  0  0  0  0  0
   26.1580    6.9220   -6.9310 C   0  0  0  0  0  0  0  0  0  0  0  0
   24.4590    9.9650   -6.6790 C   0  0  0  0  0  0  0  0  0  0  0  0
   23.1950    9.8940   -6.1020 C   0  0  0  0  0  0  0  0  0  0  0  0
   25.0600   11.2020   -6.8810 C   0  0  0  0  0  0  0  0  0  0  0  0
   24.4000   12.3650   -6.5050 C   0  0  0  0  0  0  0  0  0  0  0  0
   23.1380   12.2930   -5.9290 N   0  0  0  0  0  0  0  0  0  0  0  0
   22.5360   11.0580   -5.7280 C   0  0  0  0  0  0  0  0  0  0  0  0
   25.0540   13.7080   -6.7230 C   0  0  1  0  0  0  0  0  0  0  0  0
   25.3790   14.2790   -5.3160 C   0  0  1  0  0  0  0  0  0  0  0  0
   28.4125    5.9841  -11.2375 H   0  0  0  0  0  0  0  0  0  0  0  0
   29.8563    7.2305  -12.7847 H   0  0  0  0  0  0  0  0  0  0  0  0
   27.2086    9.7436   -9.5024 H   0  0  0  0  0  0  0  0  0  0  0  0
   30.2213   12.2531  -12.7336 H   0  0  0  0  0  0  0  0  0  0  0  0
   28.4327   11.8366  -10.7619 H   0  0  0  0  0  0  0  0  0  0  0  0
   25.2270    7.7229   -5.1396 H   0  0  0  0  0  0  0  0  0  0  0  0
   26.5506    5.9691   -6.5466 H   0  0  0  0  0  0  0  0  0  0  0  0
   22.7176    8.9160   -5.9420 H   0  0  0  0  0  0  0  0  0  0  0  0
   26.0586   11.2600   -7.3387 H   0  0  0  0  0  0  0  0  0  0  0  0
   21.5365   11.0015   -5.2722 H   0  0  0  0  0  0  0  0  0  0  0  0
   25.9786   13.5892   -7.3069 H   0  0  0  0  0  0  0  0  0  0  0  0
   24.3911   14.3851   -7.2816 H   0  0  0  0  0  0  0  0  0  0  0  0
   24.9909   13.5972   -4.5450 H   0  0  0  0  0  0  0  0  0  0  0  0
   26.4687   14.3779   -5.2032 H   0  0  0  0  0  0  0  0  0  0  0  0
   24.9076   15.2664   -5.2032 H   0  0  0  0  0  0  0  0  0  0  0  0
 11  5  1  0
 11 12  2  0
 11 15  1  0
 12 13  1  0
 13 16  1  0
 13 14  1  0
 14 15  2  0
 16 18  1  0
 16 17  2  0
 17 21  1  0
 18 19  2  0
 19 22  1  0
 19 20  1  0
 20 21  2  0
 22 23  1  0
  5  1  1  0
  1  2  2  0
  1  7  1  0
  2  3  1  0
  3  4  1  0
  4  8  2  0
  4  6  1  0
  6 10  1  0
  6  7  2  0
  8  9  1  0
  9 10  2  0
  2 24  1  0
  3 25  1  0
  7 26  1  0
  9 27  1  0
 10 28  1  0
 14 29  1  0
 15 30  1  0
 17 31  1  0
 18 32  1  0
 21 33  1  0
 22 34  1  6
 22 35  1  0
 23 36  1  1
 23 37  1  0
 23 38  1  0
M  END
>  <Pose ID>  (458)
260

>  <Score>  (458)
-5.516745090484619

>  <smiles>  (458)
CCc1cc(-n2ccc(Oc3c[nH]c4nccc-4c3)n2)ccn1

$$$$

     RDKit          3D

 40 42  0  0  0  0  0  0  0  0999 V2000
   28.0980    8.0700  -10.0520 C   0  0  0  0  0  0  0  0  0  0  0  0
   27.5350    7.2220   -9.1060 N   0  0  0  0  0  0  0  0  0  0  0  0
   26.2840    7.5060   -8.5740 C   0  0  0  0  0  0  0  0  0  0  0  0
   25.5930    8.6420   -8.9900 C   0  0  0  0  0  0  0  0  0  0  0  0
   26.1540    9.4870   -9.9360 N   0  0  0  0  0  0  0  0  0  0  0  0
   27.4030    9.2040  -10.4720 C   0  0  0  0  0  0  0  0  0  0  0  0
   24.4690    8.8950   -8.5120 O   0  0  0  0  0  0  0  0  0  0  0  0
   25.5300    6.8350   -7.6440 N   0  0  0  0  0  0  0  0  0  0  0  0
   24.9740    7.4250   -6.3290 C   0  0  0  0  0  0  0  0  0  0  0  0
   25.2800    8.7630   -6.1090 C   0  0  0  0  0  0  0  0  0  0  0  0
   24.7900    9.4150   -4.9830 N   0  0  0  0  0  0  0  0  0  0  0  0
   23.9930    8.7250   -4.0760 C   0  0  0  0  0  0  0  0  0  0  0  0
   23.6870    7.3870   -4.2950 C   0  0  0  0  0  0  0  0  0  0  0  0
   24.1790    6.7400   -5.4210 C   0  0  0  0  0  0  0  0  0  0  0  0
   23.4700    9.4220   -2.8740 C   0  0  0  0  0  0  0  0  0  0  0  0
   23.9850    9.2580   -1.7440 O   0  0  0  0  0  0  0  0  0  0  0  0
   22.2920   10.3320   -2.9510 N   0  0  0  0  0  0  0  0  0  0  0  0
   22.0670   11.4950   -2.0790 C   0  0  1  0  0  0  0  0  0  0  0  0
   21.5850   12.6840   -2.8830 C   0  0  1  0  0  0  0  0  0  0  0  0
   20.7480   11.9500   -3.9770 C   0  0  1  0  0  0  0  0  0  0  0  0
   21.5260   10.5020   -4.1760 C   0  0  1  0  0  0  0  0  0  0  0  0
   22.8910    6.9310   -3.2680 O   0  0  0  0  0  0  0  0  0  0  0  0
   21.5830    6.6650   -3.8160 C   0  0  1  0  0  0  0  0  0  0  0  0
   29.0911    7.8471  -10.4693 H   0  0  0  0  0  0  0  0  0  0  0  0
   25.6424   10.3270  -10.2418 H   0  0  0  0  0  0  0  0  0  0  0  0
   27.8435    9.8726  -11.2262 H   0  0  0  0  0  0  0  0  0  0  0  0
   25.3151    5.8471   -7.8410 H   0  0  0  0  0  0  0  0  0  0  0  0
   25.9111    9.3070   -6.8272 H   0  0  0  0  0  0  0  0  0  0  0  0
   23.9377    5.6808   -5.5938 H   0  0  0  0  0  0  0  0  0  0  0  0
   21.3089   11.2387   -1.3243 H   0  0  0  0  0  0  0  0  0  0  0  0
   23.0172   11.7601   -1.5923 H   0  0  0  0  0  0  0  0  0  0  0  0
   20.9629   13.3604   -2.2785 H   0  0  0  0  0  0  0  0  0  0  0  0
   22.3823   13.3359   -3.2694 H   0  0  0  0  0  0  0  0  0  0  0  0
   19.7132   11.7941   -3.6380 H   0  0  0  0  0  0  0  0  0  0  0  0
   20.6791   12.5246   -4.9125 H   0  0  0  0  0  0  0  0  0  0  0  0
   22.1925   10.5351   -5.0505 H   0  0  0  0  0  0  0  0  0  0  0  0
   20.8271    9.6711   -4.3524 H   0  0  0  0  0  0  0  0  0  0  0  0
   20.8646    6.5189   -2.9959 H   0  0  0  0  0  0  0  0  0  0  0  0
   21.2646    7.5168   -4.4350 H   0  0  0  0  0  0  0  0  0  0  0  0
   21.6226    5.7565   -4.4350 H   0  0  0  0  0  0  0  0  0  0  0  0
  9  8  1  0
  9 10  2  0
  9 14  1  0
 10 11  1  0
 11 12  2  0
 12 13  1  0
 12 15  1  0
 13 14  2  0
 13 22  1  0
  1  6  2  0
  1  2  1  0
  2  3  2  0
  3  4  1  0
  3  8  1  0
  4  5  1  0
  4  7  2  0
  5  6  1  0
 15 17  1  0
 15 16  2  0
 17 21  1  0
 17 18  1  0
 18 19  1  0
 19 20  1  0
 20 21  1  0
 22 23  1  0
  1 24  1  0
  5 25  1  0
  6 26  1  0
  8 27  1  0
 10 28  1  0
 14 29  1  0
 18 30  1  1
 18 31  1  0
 19 32  1  1
 19 33  1  0
 20 34  1  1
 20 35  1  0
 21 36  1  6
 21 37  1  0
 23 38  1  1
 23 39  1  0
 23 40  1  0
M  END
>  <Pose ID>  (459)
44

>  <Score>  (459)
-5.51645040512085

>  <smiles>  (459)
COc1cc(Nc2ncc[nH]c2=O)cnc1C(=O)N1CCCC1

$$$$

     RDKit          3D

 38 41  0  0  0  0  0  0  0  0999 V2000
   28.1680    7.9240  -10.5330 C   0  0  0  0  0  0  0  0  0  0  0  0
   29.0700    7.1510  -11.2540 C   0  0  0  0  0  0  0  0  0  0  0  0
   29.9630    7.7580  -12.1280 N   0  0  0  0  0  0  0  0  0  0  0  0
   29.9580    9.1390  -12.2810 C   0  0  0  0  0  0  0  0  0  0  0  0
   27.3060    7.1380   -9.6550 O   0  0  0  0  0  0  0  0  0  0  0  0
   29.0540    9.9140  -11.5600 C   0  0  0  0  0  0  0  0  0  0  0  0
   28.1610    9.3050  -10.6840 C   0  0  0  0  0  0  0  0  0  0  0  0
   30.7120    9.9450  -13.0490 N   0  0  0  0  0  0  0  0  0  0  0  0
   30.3140   11.2500  -12.8510 C   0  0  0  0  0  0  0  0  0  0  0  0
   29.2800   11.0560  -11.9090 C   0  0  0  0  0  0  0  0  0  0  0  0
   26.5300    7.6820   -8.6270 C   0  0  0  0  0  0  0  0  0  0  0  0
   25.8010    8.8220   -8.9170 N   0  0  0  0  0  0  0  0  0  0  0  0
   25.1360    9.2090   -7.7690 N   0  0  0  0  0  0  0  0  0  0  0  0
   25.4260    8.3330   -6.7970 C   0  0  0  0  0  0  0  0  0  0  0  0
   26.2470    7.4030   -7.2990 C   0  0  0  0  0  0  0  0  0  0  0  0
   24.3390   10.2280   -7.6340 C   0  0  0  0  0  0  0  0  0  0  0  0
   23.7400   10.3610   -6.3860 N   0  0  0  0  0  0  0  0  0  0  0  0
   24.2660   11.2650   -8.5540 C   0  0  0  0  0  0  0  0  0  0  0  0
   23.0680   11.5340   -6.0590 C   0  0  0  0  0  0  0  0  0  0  0  0
   23.5950   12.4380   -8.2280 C   0  0  0  0  0  0  0  0  0  0  0  0
   22.9920   12.5450   -6.9680 C   0  0  0  0  0  0  0  0  0  0  0  0
   22.4270   11.6840   -4.7030 C   0  0  1  0  0  0  0  0  0  0  0  0
   22.7590   13.0520   -4.2000 C   0  0  1  0  0  0  0  0  0  0  0  0
   29.0769    6.0577  -11.1326 H   0  0  0  0  0  0  0  0  0  0  0  0
   30.6297    7.1836  -12.6633 H   0  0  0  0  0  0  0  0  0  0  0  0
   27.4492    9.9172  -10.1108 H   0  0  0  0  0  0  0  0  0  0  0  0
   30.6943   12.1795  -13.2998 H   0  0  0  0  0  0  0  0  0  0  0  0
   28.7035   11.9027  -11.5081 H   0  0  0  0  0  0  0  0  0  0  0  0
   25.0528    8.3718   -5.7630 H   0  0  0  0  0  0  0  0  0  0  0  0
   26.6403    6.5419   -6.7389 H   0  0  0  0  0  0  0  0  0  0  0  0
   24.7393   11.1585   -9.5413 H   0  0  0  0  0  0  0  0  0  0  0  0
   23.5385   13.2683   -8.9473 H   0  0  0  0  0  0  0  0  0  0  0  0
   22.4463   13.4640   -6.7078 H   0  0  0  0  0  0  0  0  0  0  0  0
   21.3363   11.5692   -4.7880 H   0  0  0  0  0  0  0  0  0  0  0  0
   22.7993   10.9148   -4.0104 H   0  0  0  0  0  0  0  0  0  0  0  0
   22.7581   13.0484   -3.1000 H   0  0  0  0  0  0  0  0  0  0  0  0
   23.7544   13.3453   -4.5649 H   0  0  0  0  0  0  0  0  0  0  0  0
   22.0088   13.7689   -4.5649 H   0  0  0  0  0  0  0  0  0  0  0  0
 11  5  1  0
 11 12  2  0
 11 15  1  0
 12 13  1  0
 13 16  1  0
 13 14  1  0
 14 15  2  0
 16 18  1  0
 16 17  2  0
 17 19  1  0
 18 20  2  0
 19 21  2  0
 19 22  1  0
 20 21  1  0
 22 23  1  0
  5  1  1  0
  1  2  2  0
  1  7  1  0
  2  3  1  0
  3  4  1  0
  4  8  2  0
  4  6  1  0
  6 10  1  0
  6  7  2  0
  8  9  1  0
  9 10  2  0
  2 24  1  0
  3 25  1  0
  7 26  1  0
  9 27  1  0
 10 28  1  0
 14 29  1  0
 15 30  1  0
 18 31  1  0
 20 32  1  0
 21 33  1  0
 22 34  1  6
 22 35  1  0
 23 36  1  1
 23 37  1  0
 23 38  1  0
M  END
>  <Pose ID>  (460)
325

>  <Score>  (460)
-5.513051509857178

>  <smiles>  (460)
CCc1cccc(-n2ccc(Oc3c[nH]c4nccc-4c3)n2)n1

$$$$

     RDKit          3D

 34 37  0  0  0  0  0  0  0  0999 V2000
   27.8420    7.8330  -10.2310 C   0  0  0  0  0  0  0  0  0  0  0  0
   28.8060    7.1210  -10.9320 C   0  0  0  0  0  0  0  0  0  0  0  0
   29.6350    7.7770  -11.8340 N   0  0  0  0  0  0  0  0  0  0  0  0
   29.5000    9.1460  -12.0350 C   0  0  0  0  0  0  0  0  0  0  0  0
   27.0590    7.0030   -9.3200 O   0  0  0  0  0  0  0  0  0  0  0  0
   28.5330    9.8590  -11.3320 C   0  0  0  0  0  0  0  0  0  0  0  0
   27.7060    9.2020  -10.4300 C   0  0  0  0  0  0  0  0  0  0  0  0
   30.1730    9.9910  -12.8400 N   0  0  0  0  0  0  0  0  0  0  0  0
   29.6560   11.2580  -12.6830 C   0  0  0  0  0  0  0  0  0  0  0  0
   28.6500   11.0060  -11.7250 C   0  0  0  0  0  0  0  0  0  0  0  0
   26.2420    7.5080   -8.3010 C   0  0  0  0  0  0  0  0  0  0  0  0
   25.4090    8.5650   -8.6280 N   0  0  0  0  0  0  0  0  0  0  0  0
   24.7570    8.9050   -7.5390 N   0  0  0  0  0  0  0  0  0  0  0  0
   25.0540    8.1430   -6.4170 C   0  0  0  0  0  0  0  0  0  0  0  0
   25.9950    7.2540   -6.9630 C   0  0  0  0  0  0  0  0  0  0  0  0
   23.8190    9.9280   -7.4550 C   0  0  0  0  0  0  0  0  0  0  0  0
   23.1790   10.1890   -6.2500 C   0  0  0  0  0  0  0  0  0  0  0  0
   23.4780    9.4260   -5.1270 C   0  0  0  0  0  0  0  0  0  0  0  0
   24.4140    8.4020   -5.2110 N   0  0  0  0  0  0  0  0  0  0  0  0
   22.7850    9.7090   -3.8170 C   0  0  1  0  0  0  0  0  0  0  0  0
   22.9720    8.6300   -2.7720 C   0  0  1  0  0  0  0  0  0  0  0  0
   28.9135    6.0378  -10.7734 H   0  0  0  0  0  0  0  0  0  0  0  0
   30.3500    7.2486  -12.3540 H   0  0  0  0  0  0  0  0  0  0  0  0
   26.9430    9.7653   -9.8728 H   0  0  0  0  0  0  0  0  0  0  0  0
   29.9457   12.2018  -13.1681 H   0  0  0  0  0  0  0  0  0  0  0  0
   28.0002   11.8104  -11.3499 H   0  0  0  0  0  0  0  0  0  0  0  0
   26.4800    6.4483   -6.3924 H   0  0  0  0  0  0  0  0  0  0  0  0
   23.5834   10.5315   -8.3440 H   0  0  0  0  0  0  0  0  0  0  0  0
   22.4367   10.9982   -6.1845 H   0  0  0  0  0  0  0  0  0  0  0  0
   23.1811   10.6526   -3.4137 H   0  0  0  0  0  0  0  0  0  0  0  0
   21.7075    9.7576   -4.0327 H   0  0  0  0  0  0  0  0  0  0  0  0
   22.8950    9.0741   -1.7686 H   0  0  0  0  0  0  0  0  0  0  0  0
   22.1935    7.8625   -2.8940 H   0  0  0  0  0  0  0  0  0  0  0  0
   23.9634    8.1693   -2.8940 H   0  0  0  0  0  0  0  0  0  0  0  0
  5  1  1  0
  5 11  1  0
  1  2  2  0
  1  7  1  0
  2  3  1  0
  3  4  1  0
  4  8  2  0
  4  6  1  0
  6 10  1  0
  6  7  2  0
  8  9  1  0
  9 10  2  0
 11 12  2  0
 11 15  1  0
 12 13  1  0
 13 16  1  0
 13 14  1  0
 14 15  2  0
 14 19  1  0
 16 17  2  0
 17 18  1  0
 18 19  2  0
 18 20  1  0
 20 21  1  0
  2 22  1  0
  3 23  1  0
  7 24  1  0
  9 25  1  0
 10 26  1  0
 15 27  1  0
 16 28  1  0
 17 29  1  0
 20 30  1  1
 20 31  1  0
 21 32  1  1
 21 33  1  0
 21 34  1  0
M  END
>  <Pose ID>  (461)
374

>  <Score>  (461)
-5.510640621185303

>  <smiles>  (461)
CCc1ccn2nc(Oc3c[nH]c4nccc-4c3)cc2n1

$$$$

     RDKit          3D

 32 35  0  0  0  0  0  0  0  0999 V2000
   27.9220    7.9270  -10.3680 C   0  0  0  0  0  0  0  0  0  0  0  0
   28.7800    7.1290  -11.1140 C   0  0  0  0  0  0  0  0  0  0  0  0
   29.6770    7.7120  -12.0000 N   0  0  0  0  0  0  0  0  0  0  0  0
   29.7180    9.0940  -12.1400 C   0  0  0  0  0  0  0  0  0  0  0  0
   27.0500    7.1640   -9.4800 O   0  0  0  0  0  0  0  0  0  0  0  0
   28.8580    9.8930  -11.3950 C   0  0  0  0  0  0  0  0  0  0  0  0
   27.9620    9.3090  -10.5060 C   0  0  0  0  0  0  0  0  0  0  0  0
   30.4860    9.8800  -12.9190 N   0  0  0  0  0  0  0  0  0  0  0  0
   30.1390   11.1940  -12.7010 C   0  0  0  0  0  0  0  0  0  0  0  0
   29.1180   11.0330  -11.7400 C   0  0  0  0  0  0  0  0  0  0  0  0
   26.3150    7.7260   -8.4280 C   0  0  0  0  0  0  0  0  0  0  0  0
   25.6230    8.8940   -8.6970 N   0  0  0  0  0  0  0  0  0  0  0  0
   24.9960    9.2940   -7.5320 N   0  0  0  0  0  0  0  0  0  0  0  0
   25.2740    8.3990   -6.5720 C   0  0  0  0  0  0  0  0  0  0  0  0
   26.0520    7.4470   -7.0980 C   0  0  0  0  0  0  0  0  0  0  0  0
   24.3150   10.3060   -7.5100 C   0  0  0  0  0  0  0  0  0  0  0  0
   23.6390   10.8320   -6.4150 C   0  0  0  0  0  0  0  0  0  0  0  0
   24.2990   10.9810   -8.7250 C   0  0  0  0  0  0  0  0  0  0  0  0
   23.6100   12.1820   -8.8450 C   0  0  0  0  0  0  0  0  0  0  0  0
   22.9340   12.7070   -7.7490 N   0  0  0  0  0  0  0  0  0  0  0  0
   22.9340   12.0780   -6.5270 C   0  0  0  0  0  0  0  0  0  0  0  0
   28.7491    6.0350  -11.0031 H   0  0  0  0  0  0  0  0  0  0  0  0
   30.3122    7.1196  -12.5536 H   0  0  0  0  0  0  0  0  0  0  0  0
   27.2852    9.9410   -9.9123 H   0  0  0  0  0  0  0  0  0  0  0  0
   30.5442   12.1127  -13.1502 H   0  0  0  0  0  0  0  0  0  0  0  0
   28.5812   11.8970  -11.3213 H   0  0  0  0  0  0  0  0  0  0  0  0
   24.9222    8.4411   -5.5306 H   0  0  0  0  0  0  0  0  0  0  0  0
   26.4285    6.5691   -6.5526 H   0  0  0  0  0  0  0  0  0  0  0  0
   23.6442   10.2907   -5.4574 H   0  0  0  0  0  0  0  0  0  0  0  0
   24.8321   10.5643   -9.5922 H   0  0  0  0  0  0  0  0  0  0  0  0
   23.5994   12.7169   -9.8062 H   0  0  0  0  0  0  0  0  0  0  0  0
   22.4112   12.5146   -5.6633 H   0  0  0  0  0  0  0  0  0  0  0  0
  5  1  1  0
  5 11  1  0
  1  2  2  0
  1  7  1  0
  2  3  1  0
  3  4  1  0
  4  8  2  0
  4  6  1  0
  6 10  1  0
  6  7  2  0
  8  9  1  0
  9 10  2  0
 11 12  2  0
 11 15  1  0
 12 13  1  0
 13 16  1  0
 13 14  1  0
 14 15  2  0
 16 18  1  0
 16 17  2  0
 17 21  1  0
 18 19  2  0
 19 20  1  0
 20 21  2  0
  2 22  1  0
  3 23  1  0
  7 24  1  0
  9 25  1  0
 10 26  1  0
 14 27  1  0
 15 28  1  0
 17 29  1  0
 18 30  1  0
 19 31  1  0
 21 32  1  0
M  END
>  <Pose ID>  (462)
426

>  <Score>  (462)
-5.509517192840576

>  <smiles>  (462)
c1cc(-n2ccc(Oc3c[nH]c4nccc-4c3)n2)ccn1

$$$$

     RDKit          3D

 38 41  0  0  0  0  0  0  0  0999 V2000
   27.9600    7.9650  -10.3950 C   0  0  0  0  0  0  0  0  0  0  0  0
   28.8250    7.1800  -11.1420 C   0  0  0  0  0  0  0  0  0  0  0  0
   29.7220    7.7760  -12.0230 N   0  0  0  0  0  0  0  0  0  0  0  0
   29.7510    9.1590  -12.1550 C   0  0  0  0  0  0  0  0  0  0  0  0
   27.0910    7.1910   -9.5130 O   0  0  0  0  0  0  0  0  0  0  0  0
   28.8830    9.9450  -11.4070 C   0  0  0  0  0  0  0  0  0  0  0  0
   27.9880    9.3480  -10.5250 C   0  0  0  0  0  0  0  0  0  0  0  0
   30.5130    9.9540  -12.9270 N   0  0  0  0  0  0  0  0  0  0  0  0
   30.1560   11.2650  -12.7020 C   0  0  0  0  0  0  0  0  0  0  0  0
   29.1330   11.0890  -11.7450 C   0  0  0  0  0  0  0  0  0  0  0  0
   26.3480    7.7400   -8.4600 C   0  0  0  0  0  0  0  0  0  0  0  0
   25.6470    8.9050   -8.7250 N   0  0  0  0  0  0  0  0  0  0  0  0
   25.0120    9.2930   -7.5600 N   0  0  0  0  0  0  0  0  0  0  0  0
   25.2970    8.3940   -6.6030 C   0  0  0  0  0  0  0  0  0  0  0  0
   26.0830    7.4520   -7.1330 C   0  0  0  0  0  0  0  0  0  0  0  0
   24.2920   10.3410   -7.4980 C   0  0  0  0  0  0  0  0  0  0  0  0
   24.2970   10.9940   -8.7240 C   0  0  0  0  0  0  0  0  0  0  0  0
   23.5860   10.8770   -6.4270 C   0  0  0  0  0  0  0  0  0  0  0  0
   22.8860   12.0670   -6.5830 C   0  0  0  0  0  0  0  0  0  0  0  0
   23.5970   12.1850   -8.8800 C   0  0  0  0  0  0  0  0  0  0  0  0
   22.8920   12.7210   -7.8100 N   0  0  0  0  0  0  0  0  0  0  0  0
   23.5790   10.1660   -5.0970 C   0  0  1  0  0  0  0  0  0  0  0  0
   22.8750   10.9760   -3.9950 C   0  0  1  0  0  0  0  0  0  0  0  0
   28.8021    6.0852  -11.0381 H   0  0  0  0  0  0  0  0  0  0  0  0
   30.3645    7.1921  -12.5773 H   0  0  0  0  0  0  0  0  0  0  0  0
   27.3029    9.9706   -9.9309 H   0  0  0  0  0  0  0  0  0  0  0  0
   30.5557   12.1897  -13.1439 H   0  0  0  0  0  0  0  0  0  0  0  0
   28.5864   11.9455  -11.3236 H   0  0  0  0  0  0  0  0  0  0  0  0
   24.9439    8.4276   -5.5618 H   0  0  0  0  0  0  0  0  0  0  0  0
   26.4645    6.5736   -6.5918 H   0  0  0  0  0  0  0  0  0  0  0  0
   24.8548   10.5688   -9.5714 H   0  0  0  0  0  0  0  0  0  0  0  0
   22.3272   12.4916   -5.7360 H   0  0  0  0  0  0  0  0  0  0  0  0
   23.6015   12.7027   -9.8505 H   0  0  0  0  0  0  0  0  0  0  0  0
   23.0577    9.2045   -5.2146 H   0  0  0  0  0  0  0  0  0  0  0  0
   24.6258   10.0260   -4.7894 H   0  0  0  0  0  0  0  0  0  0  0  0
   23.1946   10.6083   -3.0088 H   0  0  0  0  0  0  0  0  0  0  0  0
   23.1414   12.0386   -4.0941 H   0  0  0  0  0  0  0  0  0  0  0  0
   21.7856   10.8603   -4.0941 H   0  0  0  0  0  0  0  0  0  0  0  0
 11  5  1  0
 11 12  2  0
 11 15  1  0
 12 13  1  0
 13 16  1  0
 13 14  1  0
 14 15  2  0
 16 17  2  0
 16 18  1  0
 17 20  1  0
 18 19  2  0
 18 22  1  0
 19 21  1  0
 20 21  2  0
 22 23  1  0
  5  1  1  0
  1  2  2  0
  1  7  1  0
  2  3  1  0
  3  4  1  0
  4  8  2  0
  4  6  1  0
  6 10  1  0
  6  7  2  0
  8  9  1  0
  9 10  2  0
  2 24  1  0
  3 25  1  0
  7 26  1  0
  9 27  1  0
 10 28  1  0
 14 29  1  0
 15 30  1  0
 17 31  1  0
 19 32  1  0
 20 33  1  0
 22 34  1  6
 22 35  1  0
 23 36  1  1
 23 37  1  0
 23 38  1  0
M  END
>  <Pose ID>  (463)
435

>  <Score>  (463)
-5.507604598999023

>  <smiles>  (463)
CCc1cnccc1-n1ccc(Oc2c[nH]c3nccc-3c2)n1

$$$$

     RDKit          3D

 31 34  0  0  0  0  0  0  0  0999 V2000
   27.8380    7.8250  -10.2280 C   0  0  0  0  0  0  0  0  0  0  0  0
   28.8080    7.1180  -10.9270 C   0  0  0  0  0  0  0  0  0  0  0  0
   29.6340    7.7780  -11.8290 N   0  0  0  0  0  0  0  0  0  0  0  0
   29.4900    9.1450  -12.0320 C   0  0  0  0  0  0  0  0  0  0  0  0
   27.0600    6.9900   -9.3170 O   0  0  0  0  0  0  0  0  0  0  0  0
   28.5160    9.8530  -11.3330 C   0  0  0  0  0  0  0  0  0  0  0  0
   27.6930    9.1920  -10.4310 C   0  0  0  0  0  0  0  0  0  0  0  0
   30.1580    9.9940  -12.8390 N   0  0  0  0  0  0  0  0  0  0  0  0
   29.6320   11.2570  -12.6840 C   0  0  0  0  0  0  0  0  0  0  0  0
   28.6260   11.0000  -11.7280 C   0  0  0  0  0  0  0  0  0  0  0  0
   26.2380    7.4910   -8.3000 C   0  0  0  0  0  0  0  0  0  0  0  0
   25.3980    8.5420   -8.6310 N   0  0  0  0  0  0  0  0  0  0  0  0
   24.7410    8.8800   -7.5440 N   0  0  0  0  0  0  0  0  0  0  0  0
   25.0420    8.1220   -6.4190 C   0  0  0  0  0  0  0  0  0  0  0  0
   25.9900    7.2390   -6.9630 C   0  0  0  0  0  0  0  0  0  0  0  0
   23.7960    9.8960   -7.4640 C   0  0  0  0  0  0  0  0  0  0  0  0
   23.1530   10.1550   -6.2600 C   0  0  0  0  0  0  0  0  0  0  0  0
   23.4540    9.3970   -5.1350 C   0  0  0  0  0  0  0  0  0  0  0  0
   24.3990    8.3800   -5.2150 N   0  0  0  0  0  0  0  0  0  0  0  0
   27.7260   12.0980  -11.2170 C   0  0  1  0  0  0  0  0  0  0  0  0
   28.9224    6.0358  -10.7666 H   0  0  0  0  0  0  0  0  0  0  0  0
   30.3532    7.2536  -12.3472 H   0  0  0  0  0  0  0  0  0  0  0  0
   26.9251    9.7512   -9.8763 H   0  0  0  0  0  0  0  0  0  0  0  0
   29.9164   12.2022  -13.1696 H   0  0  0  0  0  0  0  0  0  0  0  0
   26.4796    6.4377   -6.3901 H   0  0  0  0  0  0  0  0  0  0  0  0
   23.5570   10.4956   -8.3547 H   0  0  0  0  0  0  0  0  0  0  0  0
   22.4058   10.9599   -6.1973 H   0  0  0  0  0  0  0  0  0  0  0  0
   22.9450    9.6013   -4.1815 H   0  0  0  0  0  0  0  0  0  0  0  0
   27.7299   12.0932  -10.1170 H   0  0  0  0  0  0  0  0  0  0  0  0
   28.0906   13.0700  -11.5807 H   0  0  0  0  0  0  0  0  0  0  0  0
   26.7014   11.9313  -11.5807 H   0  0  0  0  0  0  0  0  0  0  0  0
  1  2  2  0
  1  7  1  0
  1  5  1  0
  2  3  1  0
  3  4  1  0
  4  8  2  0
  4  6  1  0
  6 10  1  0
  6  7  2  0
  8  9  1  0
  9 10  2  0
 10 20  1  0
  5 11  1  0
 11 12  2  0
 11 15  1  0
 12 13  1  0
 13 16  1  0
 13 14  1  0
 14 15  2  0
 14 19  1  0
 16 17  2  0
 17 18  1  0
 18 19  2  0
  2 21  1  0
  3 22  1  0
  7 23  1  0
  9 24  1  0
 15 25  1  0
 16 26  1  0
 17 27  1  0
 18 28  1  0
 20 29  1  1
 20 30  1  0
 20 31  1  0
M  END
>  <Pose ID>  (464)
356

>  <Score>  (464)
-5.504762649536133

>  <smiles>  (464)
Cc1cnc2[nH]cc(Oc3cc4ncccn4n3)cc1-2

$$$$

     RDKit          3D

 36 39  0  0  0  0  0  0  0  0999 V2000
   27.3780    7.9340  -10.1830 C   0  0  0  0  0  0  0  0  0  0  0  0
   28.4980    7.1790  -10.4920 C   0  0  0  0  0  0  0  0  0  0  0  0
   29.4850    7.7050  -11.3170 N   0  0  0  0  0  0  0  0  0  0  0  0
   26.5780    7.2260   -9.3710 N   0  0  0  0  0  0  0  0  0  0  0  0
   29.3510    8.9880  -11.8300 C   0  0  0  0  0  0  0  0  0  0  0  0
   28.2280    9.7450  -11.5200 C   0  0  0  0  0  0  0  0  0  0  0  0
   27.2420    9.2220  -10.6970 C   0  0  0  0  0  0  0  0  0  0  0  0
   30.1580    9.7020  -12.6360 N   0  0  0  0  0  0  0  0  0  0  0  0
   29.5790   10.9300  -12.8630 C   0  0  0  0  0  0  0  0  0  0  0  0
   28.3900   10.7960  -12.1160 C   0  0  0  0  0  0  0  0  0  0  0  0
   25.9750    7.7740   -8.1970 C   0  0  0  0  0  0  0  0  0  0  0  0
   25.3370    6.9070   -7.3180 N   0  0  0  0  0  0  0  0  0  0  0  0
   24.6370    7.4130   -6.2280 C   0  0  0  0  0  0  0  0  0  0  0  0
   24.5760    8.7850   -6.0190 C   0  0  0  0  0  0  0  0  0  0  0  0
   25.2140    9.6530   -6.8990 C   0  0  0  0  0  0  0  0  0  0  0  0
   25.9390    9.1420   -7.9720 C   0  0  0  0  0  0  0  0  0  0  0  0
   23.9240    6.7630   -5.2170 C   0  0  0  0  0  0  0  0  0  0  0  0
   23.5610    7.7490   -4.3270 N   0  0  0  0  0  0  0  0  0  0  0  0
   23.9360    8.9360   -4.6780 C   0  0  0  0  0  0  0  0  0  0  0  0
   23.7630   10.2120   -3.8940 C   0  0  1  0  0  0  0  0  0  0  0  0
   22.6270   10.9960   -4.4340 C   0  0  1  0  0  0  0  0  0  0  0  0
   28.6060    6.1631  -10.0842 H   0  0  0  0  0  0  0  0  0  0  0  0
   30.3164    7.1426  -11.5480 H   0  0  0  0  0  0  0  0  0  0  0  0
   26.3896    6.2408   -9.6050 H   0  0  0  0  0  0  0  0  0  0  0  0
   26.3542    9.8228  -10.4504 H   0  0  0  0  0  0  0  0  0  0  0  0
   29.9423   11.7792  -13.4604 H   0  0  0  0  0  0  0  0  0  0  0  0
   27.6434   11.6027  -12.0732 H   0  0  0  0  0  0  0  0  0  0  0  0
   25.3826    5.8899   -7.4738 H   0  0  0  0  0  0  0  0  0  0  0  0
   25.1459   10.7404   -6.7475 H   0  0  0  0  0  0  0  0  0  0  0  0
   26.4836    9.8237   -8.6418 H   0  0  0  0  0  0  0  0  0  0  0  0
   23.6997    5.6884   -5.1469 H   0  0  0  0  0  0  0  0  0  0  0  0
   23.5664    9.9667   -2.8399 H   0  0  0  0  0  0  0  0  0  0  0  0
   24.6824   10.8103   -3.9758 H   0  0  0  0  0  0  0  0  0  0  0  0
   22.0350   11.4046   -3.6018 H   0  0  0  0  0  0  0  0  0  0  0  0
   23.0116   11.8218   -5.0505 H   0  0  0  0  0  0  0  0  0  0  0  0
   21.9913   10.3434   -5.0505 H   0  0  0  0  0  0  0  0  0  0  0  0
  4  1  1  0
  4 11  1  0
  1  7  1  0
  1  2  2  0
  2  3  1  0
  3  5  1  0
  5  8  2  0
  5  6  1  0
  6 10  1  0
  6  7  2  0
  8  9  1  0
  9 10  2  0
 11 16  2  0
 11 12  1  0
 12 13  1  0
 13 14  1  0
 13 17  2  0
 14 15  2  0
 14 19  1  0
 15 16  1  0
 17 18  1  0
 18 19  2  0
 19 20  1  0
 20 21  1  0
  2 22  1  0
  3 23  1  0
  4 24  1  0
  7 25  1  0
  9 26  1  0
 10 27  1  0
 12 28  1  0
 15 29  1  0
 16 30  1  0
 17 31  1  0
 20 32  1  1
 20 33  1  0
 21 34  1  1
 21 35  1  0
 21 36  1  0
M  END
>  <Pose ID>  (465)
70

>  <Score>  (465)
-5.502306938171387

>  <smiles>  (465)
CCc1ncc2[nH]c(Nc3c[nH]c4nccc-4c3)ccc1-2

$$$$

     RDKit          3D

 32 34  0  0  0  0  0  0  0  0999 V2000
   27.8550    7.8720  -10.2410 C   0  0  0  0  0  0  0  0  0  0  0  0
   28.7940    7.1380  -10.9530 C   0  0  0  0  0  0  0  0  0  0  0  0
   29.6470    7.7770  -11.8440 N   0  0  0  0  0  0  0  0  0  0  0  0
   29.5580    9.1540  -12.0250 C   0  0  0  0  0  0  0  0  0  0  0  0
   27.0430    7.0550   -9.3410 O   0  0  0  0  0  0  0  0  0  0  0  0
   28.6170    9.8890  -11.3110 C   0  0  0  0  0  0  0  0  0  0  0  0
   27.7670    9.2470  -10.4190 C   0  0  0  0  0  0  0  0  0  0  0  0
   30.2600    9.9870  -12.8170 N   0  0  0  0  0  0  0  0  0  0  0  0
   29.7890   11.2690  -12.6390 C   0  0  0  0  0  0  0  0  0  0  0  0
   28.7730   11.0370  -11.6850 C   0  0  0  0  0  0  0  0  0  0  0  0
   26.2460    7.5730   -8.3160 C   0  0  0  0  0  0  0  0  0  0  0  0
   25.4500    8.6640   -8.6250 N   0  0  0  0  0  0  0  0  0  0  0  0
   24.7710    9.0350   -7.4780 N   0  0  0  0  0  0  0  0  0  0  0  0
   25.1190    8.1970   -6.4910 C   0  0  0  0  0  0  0  0  0  0  0  0
   25.9890    7.3080   -6.9810 C   0  0  0  0  0  0  0  0  0  0  0  0
   23.8580   10.1500   -7.4880 C   0  0  1  0  0  0  0  0  0  0  0  0
   30.2330   12.5600  -13.2820 C   0  0  1  0  0  0  0  0  0  0  0  0
   29.0770   13.3090  -13.7340 C   0  0  1  0  0  0  0  0  0  0  0  0
   28.8626    6.0493  -10.8115 H   0  0  0  0  0  0  0  0  0  0  0  0
   30.3448    7.2321  -12.3703 H   0  0  0  0  0  0  0  0  0  0  0  0
   27.0237    9.8279   -9.8532 H   0  0  0  0  0  0  0  0  0  0  0  0
   28.1507   11.8571  -11.2975 H   0  0  0  0  0  0  0  0  0  0  0  0
   24.7514    8.2345   -5.4549 H   0  0  0  0  0  0  0  0  0  0  0  0
   26.4367    6.4839   -6.4062 H   0  0  0  0  0  0  0  0  0  0  0  0
   23.6212   10.4393   -6.4535 H   0  0  0  0  0  0  0  0  0  0  0  0
   24.3229   10.9999   -8.0091 H   0  0  0  0  0  0  0  0  0  0  0  0
   22.9331    9.8619   -8.0091 H   0  0  0  0  0  0  0  0  0  0  0  0
   30.7920   13.1595  -12.5484 H   0  0  0  0  0  0  0  0  0  0  0  0
   30.8770   12.3325  -14.1443 H   0  0  0  0  0  0  0  0  0  0  0  0
   28.5133   13.6743  -12.8629 H   0  0  0  0  0  0  0  0  0  0  0  0
   29.4087   14.1643  -14.3410 H   0  0  0  0  0  0  0  0  0  0  0  0
   28.4319   12.6568  -14.3410 H   0  0  0  0  0  0  0  0  0  0  0  0
  1  2  2  0
  1  7  1  0
  1  5  1  0
  2  3  1  0
  3  4  1  0
  4  8  2  0
  4  6  1  0
  6 10  1  0
  6  7  2  0
  8  9  1  0
  9 17  1  0
  9 10  2  0
 17 18  1  0
  5 11  1  0
 11 12  2  0
 11 15  1  0
 12 13  1  0
 13 16  1  0
 13 14  1  0
 14 15  2  0
  2 19  1  0
  3 20  1  0
  7 21  1  0
 10 22  1  0
 14 23  1  0
 15 24  1  0
 16 25  1  1
 16 26  1  0
 16 27  1  0
 17 28  1  1
 17 29  1  0
 18 30  1  1
 18 31  1  0
 18 32  1  0
M  END
>  <Pose ID>  (466)
476

>  <Score>  (466)
-5.497941493988037

>  <smiles>  (466)
CCc1cc2cc(Oc3ccn(C)n3)c[nH]c-2n1

$$$$

     RDKit          3D

 38 41  0  0  0  0  0  0  0  0999 V2000
   27.7240    7.7930  -10.2830 C   0  0  0  0  0  0  0  0  0  0  0  0
   28.4870    7.0820  -11.2010 C   0  0  0  0  0  0  0  0  0  0  0  0
   29.3110    7.7600  -12.0930 N   0  0  0  0  0  0  0  0  0  0  0  0
   29.3740    9.1480  -12.0640 C   0  0  0  0  0  0  0  0  0  0  0  0
   26.9200    6.9370   -9.4160 O   0  0  0  0  0  0  0  0  0  0  0  0
   28.6100    9.8600  -11.1450 C   0  0  0  0  0  0  0  0  0  0  0  0
   27.7870    9.1810  -10.2530 C   0  0  0  0  0  0  0  0  0  0  0  0
   30.0850   10.0160  -12.8110 N   0  0  0  0  0  0  0  0  0  0  0  0
   29.7960   11.2970  -12.3980 C   0  0  0  0  0  0  0  0  0  0  0  0
   28.8640   11.0280  -11.3690 C   0  0  0  0  0  0  0  0  0  0  0  0
   26.3030    7.3700   -8.2380 C   0  0  0  0  0  0  0  0  0  0  0  0
   25.6190    8.5740   -8.2900 N   0  0  0  0  0  0  0  0  0  0  0  0
   25.1150    8.8320   -7.0280 N   0  0  0  0  0  0  0  0  0  0  0  0
   25.4600    7.8210   -6.2190 C   0  0  0  0  0  0  0  0  0  0  0  0
   26.1580    6.9320   -6.9320 C   0  0  0  0  0  0  0  0  0  0  0  0
   24.4230    9.9570   -6.7130 C   0  0  0  0  0  0  0  0  0  0  0  0
   23.1580    9.8760   -6.1400 C   0  0  0  0  0  0  0  0  0  0  0  0
   25.0110   11.1990   -6.9230 C   0  0  0  0  0  0  0  0  0  0  0  0
   24.3360   12.3580   -6.5600 C   0  0  0  0  0  0  0  0  0  0  0  0
   23.0730   12.2760   -5.9880 N   0  0  0  0  0  0  0  0  0  0  0  0
   22.4840   11.0360   -5.7780 C   0  0  0  0  0  0  0  0  0  0  0  0
   24.9750   13.7060   -6.7870 C   0  0  1  0  0  0  0  0  0  0  0  0
   28.2140   12.1400  -10.5840 C   0  0  1  0  0  0  0  0  0  0  0  0
   28.4394    5.9832  -11.2223 H   0  0  0  0  0  0  0  0  0  0  0  0
   29.8747    7.2332  -12.7753 H   0  0  0  0  0  0  0  0  0  0  0  0
   27.1855    9.7429   -9.5233 H   0  0  0  0  0  0  0  0  0  0  0  0
   30.1817   12.2595  -12.7652 H   0  0  0  0  0  0  0  0  0  0  0  0
   25.2112    7.7372   -5.1508 H   0  0  0  0  0  0  0  0  0  0  0  0
   26.5601    5.9870   -6.5379 H   0  0  0  0  0  0  0  0  0  0  0  0
   22.6913    8.8939   -5.9735 H   0  0  0  0  0  0  0  0  0  0  0  0
   26.0110   11.2643   -7.3767 H   0  0  0  0  0  0  0  0  0  0  0  0
   21.4837   10.9721   -5.3250 H   0  0  0  0  0  0  0  0  0  0  0  0
   25.1971   14.1745   -5.8169 H   0  0  0  0  0  0  0  0  0  0  0  0
   25.9084   13.5784   -7.3548 H   0  0  0  0  0  0  0  0  0  0  0  0
   24.2853   14.3478   -7.3548 H   0  0  0  0  0  0  0  0  0  0  0  0
   28.3284   11.9443   -9.5076 H   0  0  0  0  0  0  0  0  0  0  0  0
   28.6952   13.0965  -10.8360 H   0  0  0  0  0  0  0  0  0  0  0  0
   27.1444   12.1900  -10.8360 H   0  0  0  0  0  0  0  0  0  0  0  0
  5  1  1  0
  5 11  1  0
  1  2  2  0
  1  7  1  0
  2  3  1  0
  3  4  1  0
  4  8  2  0
  4  6  1  0
  6 10  1  0
  6  7  2  0
  8  9  1  0
  9 10  2  0
 10 23  1  0
 11 12  2  0
 11 15  1  0
 12 13  1  0
 13 16  1  0
 13 14  1  0
 14 15  2  0
 16 18  1  0
 16 17  2  0
 17 21  1  0
 18 19  2  0
 19 22  1  0
 19 20  1  0
 20 21  2  0
  2 24  1  0
  3 25  1  0
  7 26  1  0
  9 27  1  0
 14 28  1  0
 15 29  1  0
 17 30  1  0
 18 31  1  0
 21 32  1  0
 22 33  1  1
 22 34  1  0
 22 35  1  0
 23 36  1  1
 23 37  1  0
 23 38  1  0
M  END
>  <Pose ID>  (467)
262

>  <Score>  (467)
-5.496120452880859

>  <smiles>  (467)
Cc1cc(-n2ccc(Oc3c[nH]c4ncc(C)c-4c3)n2)ccn1

$$$$

     RDKit          3D

 32 35  0  0  0  0  0  0  0  0999 V2000
   27.8120    7.7810  -10.2870 C   0  0  0  0  0  0  0  0  0  0  0  0
   28.7880    7.0910  -10.9950 C   0  0  0  0  0  0  0  0  0  0  0  0
   29.6450    7.7790  -11.8460 N   0  0  0  0  0  0  0  0  0  0  0  0
   29.5270    9.1560  -11.9880 C   0  0  0  0  0  0  0  0  0  0  0  0
   26.9990    6.9180   -9.4340 O   0  0  0  0  0  0  0  0  0  0  0  0
   28.5490    9.8470  -11.2790 C   0  0  0  0  0  0  0  0  0  0  0  0
   27.6940    9.1580  -10.4280 C   0  0  0  0  0  0  0  0  0  0  0  0
   30.2270   10.0300  -12.7380 N   0  0  0  0  0  0  0  0  0  0  0  0
   29.7180   11.2940  -12.5360 C   0  0  0  0  0  0  0  0  0  0  0  0
   28.6860   11.0100  -11.6160 C   0  0  0  0  0  0  0  0  0  0  0  0
   26.1610    7.3850   -8.4150 C   0  0  0  0  0  0  0  0  0  0  0  0
   25.3450    8.4640   -8.7130 N   0  0  0  0  0  0  0  0  0  0  0  0
   24.6710    8.7620   -7.6330 N   0  0  0  0  0  0  0  0  0  0  0  0
   24.9440    7.9470   -6.5410 C   0  0  0  0  0  0  0  0  0  0  0  0
   25.8780    7.0740   -7.0960 C   0  0  0  0  0  0  0  0  0  0  0  0
   23.7370    9.7850   -7.5190 C   0  0  0  0  0  0  0  0  0  0  0  0
   23.0770    9.9940   -6.3150 C   0  0  0  0  0  0  0  0  0  0  0  0
   23.3490    9.1790   -5.2230 C   0  0  0  0  0  0  0  0  0  0  0  0
   24.2840    8.1550   -5.3370 C   0  0  0  0  0  0  0  0  0  0  0  0
   24.5800    7.2690   -4.1510 C   0  0  1  0  0  0  0  0  0  0  0  0
   28.8825    6.0009  -10.8822 H   0  0  0  0  0  0  0  0  0  0  0  0
   30.3681    7.2676  -12.3718 H   0  0  0  0  0  0  0  0  0  0  0  0
   26.9224    9.7036   -9.8650 H   0  0  0  0  0  0  0  0  0  0  0  0
   30.0289   12.2557  -12.9702 H   0  0  0  0  0  0  0  0  0  0  0  0
   28.0344   11.8032  -11.2208 H   0  0  0  0  0  0  0  0  0  0  0  0
   26.3365    6.2363   -6.5501 H   0  0  0  0  0  0  0  0  0  0  0  0
   23.5203   10.4299   -8.3834 H   0  0  0  0  0  0  0  0  0  0  0  0
   22.3389   10.8047   -6.2259 H   0  0  0  0  0  0  0  0  0  0  0  0
   22.8257    9.3432   -4.2695 H   0  0  0  0  0  0  0  0  0  0  0  0
   24.3937    7.8266   -3.2213 H   0  0  0  0  0  0  0  0  0  0  0  0
   23.9291    6.3828   -4.1838 H   0  0  0  0  0  0  0  0  0  0  0  0
   25.6328    6.9520   -4.1838 H   0  0  0  0  0  0  0  0  0  0  0  0
  5  1  1  0
  5 11  1  0
  1  2  2  0
  1  7  1  0
  2  3  1  0
  3  4  1  0
  4  8  2  0
  4  6  1  0
  6 10  1  0
  6  7  2  0
  8  9  1  0
  9 10  2  0
 11 12  2  0
 11 15  1  0
 12 13  1  0
 13 16  1  0
 13 14  1  0
 14 15  2  0
 14 19  1  0
 16 17  2  0
 17 18  1  0
 18 19  2  0
 19 20  1  0
  2 21  1  0
  3 22  1  0
  7 23  1  0
  9 24  1  0
 10 25  1  0
 15 26  1  0
 16 27  1  0
 17 28  1  0
 18 29  1  0
 20 30  1  1
 20 31  1  0
 20 32  1  0
M  END
>  <Pose ID>  (468)
329

>  <Score>  (468)
-5.494149684906006

>  <smiles>  (468)
Cc1cccn2nc(Oc3c[nH]c4nccc-4c3)cc12

$$$$

     RDKit          3D

 26 28  0  0  0  0  0  0  0  0999 V2000
   26.7680    8.9420  -10.3810 C   0  0  0  0  0  0  0  0  0  0  0  0
   27.4270    7.7310  -10.1890 C   0  0  0  0  0  0  0  0  0  0  0  0
   28.6750    7.5210  -10.7660 N   0  0  0  0  0  0  0  0  0  0  0  0
   25.5540    9.4660   -9.9560 N   0  0  0  0  0  0  0  0  0  0  0  0
   29.2620    8.5170  -11.5380 C   0  0  0  0  0  0  0  0  0  0  0  0
   28.6020    9.7250  -11.7320 C   0  0  0  0  0  0  0  0  0  0  0  0
   27.3550    9.9360  -11.1540 C   0  0  0  0  0  0  0  0  0  0  0  0
   30.4380    8.5490  -12.1890 N   0  0  0  0  0  0  0  0  0  0  0  0
   30.5650    9.7670  -12.8170 C   0  0  0  0  0  0  0  0  0  0  0  0
   29.3460   10.3740  -12.4450 C   0  0  0  0  0  0  0  0  0  0  0  0
   25.2170    9.8150   -8.5560 C   0  0  0  0  0  0  0  0  0  0  0  0
   24.0230   10.3260   -8.0760 N   0  0  0  0  0  0  0  0  0  0  0  0
   23.8850   10.6450   -6.7300 C   0  0  0  0  0  0  0  0  0  0  0  0
   24.9430   10.4150   -5.8570 C   0  0  0  0  0  0  0  0  0  0  0  0
   26.1370    9.8880   -6.3330 C   0  0  0  0  0  0  0  0  0  0  0  0
   26.2730    9.5870   -7.6820 N   0  0  0  0  0  0  0  0  0  0  0  0
   27.0830    9.6860   -5.5510 O   0  0  0  0  0  0  0  0  0  0  0  0
   26.9613    6.9410   -9.5816 H   0  0  0  0  0  0  0  0  0  0  0  0
   29.1648    6.6266  -10.6211 H   0  0  0  0  0  0  0  0  0  0  0  0
   24.8300    9.6247  -10.6713 H   0  0  0  0  0  0  0  0  0  0  0  0
   26.8325   10.8915  -11.3091 H   0  0  0  0  0  0  0  0  0  0  0  0
   31.3863   10.1580  -13.4355 H   0  0  0  0  0  0  0  0  0  0  0  0
   29.0804   11.3864  -12.7835 H   0  0  0  0  0  0  0  0  0  0  0  0
   22.9444   11.0769   -6.3575 H   0  0  0  0  0  0  0  0  0  0  0  0
   24.8342   10.6507   -4.7881 H   0  0  0  0  0  0  0  0  0  0  0  0
   27.1574    9.1944   -8.0350 H   0  0  0  0  0  0  0  0  0  0  0  0
  1  7  1  0
  1  2  2  0
  1  4  1  0
  2  3  1  0
  3  5  1  0
  5  8  2  0
  5  6  1  0
  6 10  1  0
  6  7  2  0
  8  9  1  0
  9 10  2  0
  4 11  1  0
 11 12  2  0
 11 16  1  0
 12 13  1  0
 13 14  2  0
 14 15  1  0
 15 16  1  0
 15 17  2  0
  2 18  1  0
  3 19  1  0
  4 20  1  0
  7 21  1  0
  9 22  1  0
 10 23  1  0
 13 24  1  0
 14 25  1  0
 16 26  1  0
M  END
>  <Pose ID>  (469)
13

>  <Score>  (469)
-5.490323543548584

>  <smiles>  (469)
O=c1ccnc(Nc2c[nH]c3nccc-3c2)[nH]1

$$$$

     RDKit          3D

 33 36  0  0  0  0  0  0  0  0999 V2000
   28.0360    7.8930  -10.4870 C   0  0  0  0  0  0  0  0  0  0  0  0
   28.9090    7.1400  -11.2610 C   0  0  0  0  0  0  0  0  0  0  0  0
   29.7860    7.7720  -12.1340 N   0  0  0  0  0  0  0  0  0  0  0  0
   29.7930    9.1580  -12.2310 C   0  0  0  0  0  0  0  0  0  0  0  0
   27.1880    7.0840   -9.6180 O   0  0  0  0  0  0  0  0  0  0  0  0
   28.9180    9.9130  -11.4560 C   0  0  0  0  0  0  0  0  0  0  0  0
   28.0410    9.2800  -10.5850 C   0  0  0  0  0  0  0  0  0  0  0  0
   30.5370    9.9870  -12.9890 N   0  0  0  0  0  0  0  0  0  0  0  0
   30.1600   11.2860  -12.7280 C   0  0  0  0  0  0  0  0  0  0  0  0
   29.1470   11.0680  -11.7670 C   0  0  0  0  0  0  0  0  0  0  0  0
   26.4450    7.5920   -8.5470 C   0  0  0  0  0  0  0  0  0  0  0  0
   25.7230    8.7520   -8.7750 N   0  0  0  0  0  0  0  0  0  0  0  0
   25.0940    9.0990   -7.5940 N   0  0  0  0  0  0  0  0  0  0  0  0
   25.4000    8.1840   -6.6630 C   0  0  0  0  0  0  0  0  0  0  0  0
   26.1960    7.2670   -7.2240 C   0  0  0  0  0  0  0  0  0  0  0  0
   24.3010   10.1950   -7.4430 C   0  0  0  0  0  0  0  0  0  0  0  0
   24.2530   11.2070   -8.3950 C   0  0  0  0  0  0  0  0  0  0  0  0
   23.6960   10.3770   -6.2050 C   0  0  0  0  0  0  0  0  0  0  0  0
   23.0440   11.5710   -5.9180 C   0  0  0  0  0  0  0  0  0  0  0  0
   23.6010   12.4010   -8.1070 C   0  0  0  0  0  0  0  0  0  0  0  0
   22.9880   12.5730   -6.8730 N   0  0  0  0  0  0  0  0  0  0  0  0
   23.5680   13.3130   -8.9530 O   0  0  0  0  0  0  0  0  0  0  0  0
   28.9063    6.0428  -11.1830 H   0  0  0  0  0  0  0  0  0  0  0  0
   30.4314    7.2126  -12.7097 H   0  0  0  0  0  0  0  0  0  0  0  0
   27.3495    9.8765   -9.9719 H   0  0  0  0  0  0  0  0  0  0  0  0
   30.5405   12.2282  -13.1492 H   0  0  0  0  0  0  0  0  0  0  0  0
   28.5900   11.9045  -11.3197 H   0  0  0  0  0  0  0  0  0  0  0  0
   25.0559    8.1869   -5.6182 H   0  0  0  0  0  0  0  0  0  0  0  0
   26.5957    6.3814   -6.7083 H   0  0  0  0  0  0  0  0  0  0  0  0
   24.7305   11.0633   -9.3755 H   0  0  0  0  0  0  0  0  0  0  0  0
   23.7330    9.5760   -5.4519 H   0  0  0  0  0  0  0  0  0  0  0  0
   22.5737   11.7197   -4.9348 H   0  0  0  0  0  0  0  0  0  0  0  0
   22.4891   13.4501   -6.6666 H   0  0  0  0  0  0  0  0  0  0  0  0
 11  5  1  0
 11 12  2  0
 11 15  1  0
 12 13  1  0
 13 16  1  0
 13 14  1  0
 14 15  2  0
 16 17  2  0
 16 18  1  0
 17 20  1  0
 18 19  2  0
 19 21  1  0
 20 22  2  0
 20 21  1  0
  5  1  1  0
  1  2  2  0
  1  7  1  0
  2  3  1  0
  3  4  1  0
  4  8  2  0
  4  6  1  0
  6 10  1  0
  6  7  2  0
  8  9  1  0
  9 10  2  0
  2 23  1  0
  3 24  1  0
  7 25  1  0
  9 26  1  0
 10 27  1  0
 14 28  1  0
 15 29  1  0
 17 30  1  0
 18 31  1  0
 19 32  1  0
 21 33  1  0
M  END
>  <Pose ID>  (470)
411

>  <Score>  (470)
-5.4804368019104

>  <smiles>  (470)
O=c1cc(-n2ccc(Oc3c[nH]c4nccc-4c3)n2)cc[nH]1

$$$$

     RDKit          3D

 38 41  0  0  0  0  0  0  0  0999 V2000
   27.9260    7.8640  -10.4350 C   0  0  0  0  0  0  0  0  0  0  0  0
   28.7250    7.0760  -11.2530 C   0  0  0  0  0  0  0  0  0  0  0  0
   29.6190    7.6740  -12.1340 N   0  0  0  0  0  0  0  0  0  0  0  0
   29.7160    9.0590  -12.1940 C   0  0  0  0  0  0  0  0  0  0  0  0
   27.0490    7.0870   -9.5640 O   0  0  0  0  0  0  0  0  0  0  0  0
   28.9140    9.8470  -11.3750 C   0  0  0  0  0  0  0  0  0  0  0  0
   28.0210    9.2490  -10.4950 C   0  0  0  0  0  0  0  0  0  0  0  0
   30.4920    9.8590  -12.9520 N   0  0  0  0  0  0  0  0  0  0  0  0
   30.2080   11.1700  -12.6460 C   0  0  0  0  0  0  0  0  0  0  0  0
   29.2110   10.9930  -11.6620 C   0  0  0  0  0  0  0  0  0  0  0  0
   26.3710    7.6140   -8.4590 C   0  0  0  0  0  0  0  0  0  0  0  0
   25.7210    8.8250   -8.6350 N   0  0  0  0  0  0  0  0  0  0  0  0
   25.1480    9.1800   -7.4280 N   0  0  0  0  0  0  0  0  0  0  0  0
   25.4170    8.2190   -6.5320 C   0  0  0  0  0  0  0  0  0  0  0  0
   26.1350    7.2700   -7.1380 C   0  0  0  0  0  0  0  0  0  0  0  0
   24.4300   10.2620   -7.2060 C   0  0  0  0  0  0  0  0  0  0  0  0
   24.2180   11.1930   -8.2170 C   0  0  0  0  0  0  0  0  0  0  0  0
   23.9090   10.4830   -5.9360 C   0  0  0  0  0  0  0  0  0  0  0  0
   23.1770   11.6360   -5.6780 C   0  0  0  0  0  0  0  0  0  0  0  0
   23.4860   12.3450   -7.9570 N   0  0  0  0  0  0  0  0  0  0  0  0
   22.9380   12.5800   -6.7130 C   0  0  0  0  0  0  0  0  0  0  0  0
   22.6340   11.8860   -4.2930 C   0  0  1  0  0  0  0  0  0  0  0  0
   21.8240   10.7470   -3.6870 C   0  0  1  0  0  0  0  0  0  0  0  0
   28.6506    5.9796  -11.2040 H   0  0  0  0  0  0  0  0  0  0  0  0
   30.2099    7.0900  -12.7428 H   0  0  0  0  0  0  0  0  0  0  0  0
   27.3888    9.8721   -9.8454 H   0  0  0  0  0  0  0  0  0  0  0  0
   30.6376   12.0969  -13.0539 H   0  0  0  0  0  0  0  0  0  0  0  0
   28.7242   11.8516  -11.1763 H   0  0  0  0  0  0  0  0  0  0  0  0
   25.1005    8.2134   -5.4785 H   0  0  0  0  0  0  0  0  0  0  0  0
   26.4888    6.3464   -6.6566 H   0  0  0  0  0  0  0  0  0  0  0  0
   24.6296   11.0175   -9.2219 H   0  0  0  0  0  0  0  0  0  0  0  0
   24.0759    9.7462   -5.1364 H   0  0  0  0  0  0  0  0  0  0  0  0
   22.3300   13.4775   -6.5265 H   0  0  0  0  0  0  0  0  0  0  0  0
   23.4860   12.0869   -3.6268 H   0  0  0  0  0  0  0  0  0  0  0  0
   21.9369   12.7312   -4.3916 H   0  0  0  0  0  0  0  0  0  0  0  0
   21.8681   10.8091   -2.5896 H   0  0  0  0  0  0  0  0  0  0  0  0
   20.7776   10.8253   -4.0169 H   0  0  0  0  0  0  0  0  0  0  0  0
   22.2414    9.7842   -4.0169 H   0  0  0  0  0  0  0  0  0  0  0  0
 11  5  1  0
 11 12  2  0
 11 15  1  0
 12 13  1  0
 13 16  1  0
 13 14  1  0
 14 15  2  0
 16 17  2  0
 16 18  1  0
 17 20  1  0
 18 19  2  0
 19 21  1  0
 19 22  1  0
 20 21  2  0
 22 23  1  0
  5  1  1  0
  1  2  2  0
  1  7  1  0
  2  3  1  0
  3  4  1  0
  4  8  2  0
  4  6  1  0
  6 10  1  0
  6  7  2  0
  8  9  1  0
  9 10  2  0
  2 24  1  0
  3 25  1  0
  7 26  1  0
  9 27  1  0
 10 28  1  0
 14 29  1  0
 15 30  1  0
 17 31  1  0
 18 32  1  0
 21 33  1  0
 22 34  1  1
 22 35  1  0
 23 36  1  1
 23 37  1  0
 23 38  1  0
M  END
>  <Pose ID>  (471)
401

>  <Score>  (471)
-5.479913234710693

>  <smiles>  (471)
CCc1cncc(-n2ccc(Oc3c[nH]c4nccc-4c3)n2)c1

$$$$

     RDKit          3D

 28 30  0  0  0  0  0  0  0  0999 V2000
   27.5300    8.3380   -9.4680 C   0  0  0  0  0  0  0  0  0  0  0  0
   26.7910    7.5370   -8.6070 N   0  0  0  0  0  0  0  0  0  0  0  0
   26.0440    8.1140   -7.5900 C   0  0  0  0  0  0  0  0  0  0  0  0
   26.0340    9.4950   -7.4330 C   0  0  0  0  0  0  0  0  0  0  0  0
   25.3020   10.0290   -6.3430 C   0  0  0  0  0  0  0  0  0  0  0  0
   24.5810    9.1920   -5.4990 C   0  0  0  0  0  0  0  0  0  0  0  0
   24.5920    7.8190   -5.7100 C   0  0  0  0  0  0  0  0  0  0  0  0
   25.3180    7.2810   -6.7630 C   0  0  0  0  0  0  0  0  0  0  0  0
   27.5200    9.7190   -9.3110 C   0  0  0  0  0  0  0  0  0  0  0  0
   26.7730   10.2990   -8.2920 C   0  0  0  0  0  0  0  0  0  0  0  0
   28.2690    7.7690  -10.4740 N   0  0  0  0  0  0  0  0  0  0  0  0
   29.0440    8.4280  -11.3300 C   0  0  0  0  0  0  0  0  0  0  0  0
   30.4290    8.2490  -11.4660 N   0  0  0  0  0  0  0  0  0  0  0  0
   30.7880    9.1200  -12.4170 O   0  0  0  0  0  0  0  0  0  0  0  0
   29.7990    9.7880  -12.8760 C   0  0  0  0  0  0  0  0  0  0  0  0
   28.6440    9.3410  -12.2210 C   0  0  0  0  0  0  0  0  0  0  0  0
   25.3120    5.7920   -7.0030 C   0  0  1  0  0  0  0  0  0  0  0  0
   25.3044   11.1142   -6.1635 H   0  0  0  0  0  0  0  0  0  0  0  0
   24.0025    9.6164   -4.6652 H   0  0  0  0  0  0  0  0  0  0  0  0
   24.0237    7.1566   -5.0405 H   0  0  0  0  0  0  0  0  0  0  0  0
   28.1038   10.3538   -9.9938 H   0  0  0  0  0  0  0  0  0  0  0  0
   26.7670   11.3918   -8.1661 H   0  0  0  0  0  0  0  0  0  0  0  0
   28.2193    6.7451  -10.5746 H   0  0  0  0  0  0  0  0  0  0  0  0
   29.8465   10.5720  -13.6461 H   0  0  0  0  0  0  0  0  0  0  0  0
   27.6120    9.6752  -12.4037 H   0  0  0  0  0  0  0  0  0  0  0  0
   25.3099    5.2650   -6.0375 H   0  0  0  0  0  0  0  0  0  0  0  0
   24.4127    5.5161   -7.5733 H   0  0  0  0  0  0  0  0  0  0  0  0
   26.2090    5.5089   -7.5733 H   0  0  0  0  0  0  0  0  0  0  0  0
  1 11  1  0
  1  9  1  0
  1  2  2  0
  2  3  1  0
  3  4  2  0
  3  8  1  0
  4 10  1  0
  4  5  1  0
  5  6  2  0
  6  7  1  0
  7  8  2  0
  8 17  1  0
  9 10  2  0
 11 12  1  0
 12 16  1  0
 12 13  2  0
 13 14  1  0
 14 15  1  0
 15 16  2  0
  5 18  1  0
  6 19  1  0
  7 20  1  0
  9 21  1  0
 10 22  1  0
 11 23  1  0
 15 24  1  0
 16 25  1  0
 17 26  1  1
 17 27  1  0
 17 28  1  0
M  END
>  <Pose ID>  (472)
13

>  <Score>  (472)
-5.478699684143066

>  <smiles>  (472)
Cc1cccc2ccc(Nc3ccon3)nc12

$$$$

     RDKit          3D

 34 37  0  0  0  0  0  0  0  0999 V2000
   27.9340    7.8550  -10.3510 C   0  0  0  0  0  0  0  0  0  0  0  0
   28.8960    7.1280  -11.0410 C   0  0  0  0  0  0  0  0  0  0  0  0
   29.7710    7.7780  -11.9030 N   0  0  0  0  0  0  0  0  0  0  0  0
   29.6860    9.1550  -12.0740 C   0  0  0  0  0  0  0  0  0  0  0  0
   27.1000    7.0280   -9.4820 O   0  0  0  0  0  0  0  0  0  0  0  0
   28.7220    9.8830  -11.3830 C   0  0  0  0  0  0  0  0  0  0  0  0
   27.8480    9.2310  -10.5210 C   0  0  0  0  0  0  0  0  0  0  0  0
   30.4070    9.9970  -12.8390 N   0  0  0  0  0  0  0  0  0  0  0  0
   29.9280   11.2750  -12.6660 C   0  0  0  0  0  0  0  0  0  0  0  0
   28.8860   11.0340  -11.7440 C   0  0  0  0  0  0  0  0  0  0  0  0
   26.2700    7.5360   -8.4760 C   0  0  0  0  0  0  0  0  0  0  0  0
   25.4810    8.6270   -8.7980 N   0  0  0  0  0  0  0  0  0  0  0  0
   24.7990    8.9650   -7.6960 N   0  0  0  0  0  0  0  0  0  0  0  0
   25.0860    8.1140   -6.6370 C   0  0  0  0  0  0  0  0  0  0  0  0
   25.9760    7.2600   -7.1530 C   0  0  0  0  0  0  0  0  0  0  0  0
   23.8830    9.9970   -7.5300 C   0  0  0  0  0  0  0  0  0  0  0  0
   23.2550   10.1770   -6.3030 N   0  0  0  0  0  0  0  0  0  0  0  0
   23.5420    9.3250   -5.2430 C   0  0  0  0  0  0  0  0  0  0  0  0
   24.4580    8.2940   -5.4100 C   0  0  0  0  0  0  0  0  0  0  0  0
   30.3870   12.5710  -13.2870 C   0  0  1  0  0  0  0  0  0  0  0  0
   29.1880   13.3640  -13.8480 C   0  0  1  0  0  0  0  0  0  0  0  0
   28.9650    6.0386  -10.9051 H   0  0  0  0  0  0  0  0  0  0  0  0
   30.4833    7.2389  -12.4158 H   0  0  0  0  0  0  0  0  0  0  0  0
   27.0870    9.8055   -9.9726 H   0  0  0  0  0  0  0  0  0  0  0  0
   28.2508   11.8499  -11.3687 H   0  0  0  0  0  0  0  0  0  0  0  0
   26.4247    6.4298   -6.5879 H   0  0  0  0  0  0  0  0  0  0  0  0
   23.6551   10.6709   -8.3690 H   0  0  0  0  0  0  0  0  0  0  0  0
   23.0441    9.4670   -4.2725 H   0  0  0  0  0  0  0  0  0  0  0  0
   24.6864    7.6200   -4.5712 H   0  0  0  0  0  0  0  0  0  0  0  0
   30.8947   13.1775  -12.5225 H   0  0  0  0  0  0  0  0  0  0  0  0
   31.0761   12.3418  -14.1132 H   0  0  0  0  0  0  0  0  0  0  0  0
   28.5886   13.7604  -13.0152 H   0  0  0  0  0  0  0  0  0  0  0  0
   29.5558   14.1976  -14.4644 H   0  0  0  0  0  0  0  0  0  0  0  0
   28.5649   12.6993  -14.4644 H   0  0  0  0  0  0  0  0  0  0  0  0
  1  2  2  0
  1  7  1  0
  1  5  1  0
  2  3  1  0
  3  4  1  0
  4  8  2  0
  4  6  1  0
  6 10  1  0
  6  7  2  0
  8  9  1  0
  9 20  1  0
  9 10  2  0
 20 21  1  0
  5 11  1  0
 11 12  2  0
 11 15  1  0
 12 13  1  0
 13 16  1  0
 13 14  1  0
 14 15  2  0
 14 19  1  0
 16 17  2  0
 17 18  1  0
 18 19  2  0
  2 22  1  0
  3 23  1  0
  7 24  1  0
 10 25  1  0
 15 26  1  0
 16 27  1  0
 18 28  1  0
 19 29  1  0
 20 30  1  1
 20 31  1  0
 21 32  1  1
 21 33  1  0
 21 34  1  0
M  END
>  <Pose ID>  (473)
278

>  <Score>  (473)
-5.478301048278809

>  <smiles>  (473)
CCc1cc2cc(Oc3cc4ccncn4n3)c[nH]c-2n1

$$$$

     RDKit          3D

 40 42  0  0  0  0  0  0  0  0999 V2000
   28.3610    8.0590  -10.3230 C   0  0  0  0  0  0  0  0  0  0  0  0
   27.8030    7.2390   -9.3490 N   0  0  0  0  0  0  0  0  0  0  0  0
   26.5570    7.5390   -8.8170 C   0  0  0  0  0  0  0  0  0  0  0  0
   25.8630    8.6620   -9.2610 C   0  0  0  0  0  0  0  0  0  0  0  0
   26.4190    9.4800  -10.2360 N   0  0  0  0  0  0  0  0  0  0  0  0
   27.6640    9.1800  -10.7710 C   0  0  0  0  0  0  0  0  0  0  0  0
   24.7430    8.9290   -8.7850 O   0  0  0  0  0  0  0  0  0  0  0  0
   25.8090    6.8940   -7.8650 N   0  0  0  0  0  0  0  0  0  0  0  0
   25.2610    7.5230   -6.5640 C   0  0  0  0  0  0  0  0  0  0  0  0
   25.5700    8.8660   -6.3840 C   0  0  0  0  0  0  0  0  0  0  0  0
   25.0870    9.5490   -5.2730 N   0  0  0  0  0  0  0  0  0  0  0  0
   24.2960    8.8880   -4.3430 C   0  0  0  0  0  0  0  0  0  0  0  0
   23.9880    7.5450   -4.5210 C   0  0  0  0  0  0  0  0  0  0  0  0
   24.4720    6.8640   -5.6300 C   0  0  0  0  0  0  0  0  0  0  0  0
   23.7800    9.6180   -3.1560 C   0  0  0  0  0  0  0  0  0  0  0  0
   24.3030    9.4860   -2.0250 O   0  0  0  0  0  0  0  0  0  0  0  0
   22.6030   10.5280   -3.2530 N   0  0  0  0  0  0  0  0  0  0  0  0
   22.3830   11.7150   -2.4120 C   0  0  1  0  0  0  0  0  0  0  0  0
   21.8290   10.6630   -4.4780 C   0  0  1  0  0  0  0  0  0  0  0  0
   20.5390    9.8230   -4.3420 C   0  0  1  0  0  0  0  0  0  0  0  0
   21.0180   11.6990   -1.8720 C   0  0  1  0  0  0  0  0  0  0  0  0
   19.9070   10.1140   -3.1270 O   0  0  0  0  0  0  0  0  0  0  0  0
   20.7700   10.1740   -1.6740 C   0  0  1  0  0  0  0  0  0  0  0  0
   29.3514    7.8235  -10.7397 H   0  0  0  0  0  0  0  0  0  0  0  0
   25.9061   10.3113  -10.5628 H   0  0  0  0  0  0  0  0  0  0  0  0
   28.1001    9.8258  -11.5474 H   0  0  0  0  0  0  0  0  0  0  0  0
   25.5931    5.9009   -8.0324 H   0  0  0  0  0  0  0  0  0  0  0  0
   26.1971    9.3892   -7.1209 H   0  0  0  0  0  0  0  0  0  0  0  0
   23.3612    7.0216   -3.7840 H   0  0  0  0  0  0  0  0  0  0  0  0
   24.2300    5.8000   -5.7692 H   0  0  0  0  0  0  0  0  0  0  0  0
   23.1039   11.7120   -1.5812 H   0  0  0  0  0  0  0  0  0  0  0  0
   22.5209   12.6207   -3.0209 H   0  0  0  0  0  0  0  0  0  0  0  0
   21.5680   11.7197   -4.6367 H   0  0  0  0  0  0  0  0  0  0  0  0
   22.4191   10.3087   -5.3360 H   0  0  0  0  0  0  0  0  0  0  0  0
   19.8591   10.0615   -5.1732 H   0  0  0  0  0  0  0  0  0  0  0  0
   20.7981    8.7543   -4.3687 H   0  0  0  0  0  0  0  0  0  0  0  0
   20.9590   12.2415   -0.9169 H   0  0  0  0  0  0  0  0  0  0  0  0
   20.2772   12.1897   -2.5204 H   0  0  0  0  0  0  0  0  0  0  0  0
   21.6878    9.5677   -1.6732 H   0  0  0  0  0  0  0  0  0  0  0  0
   20.3140    9.8038   -0.7439 H   0  0  0  0  0  0  0  0  0  0  0  0
  9  8  1  0
  9 10  2  0
  9 14  1  0
 10 11  1  0
 11 12  2  0
 12 13  1  0
 12 15  1  0
 13 14  2  0
  1  6  2  0
  1  2  1  0
  2  3  2  0
  3  4  1  0
  3  8  1  0
  4  5  1  0
  4  7  2  0
  5  6  1  0
 15 17  1  0
 15 16  2  0
 17 19  1  0
 17 18  1  0
 18 21  1  0
 19 20  1  0
 20 22  1  0
 21 23  1  0
 22 23  1  0
  1 24  1  0
  5 25  1  0
  6 26  1  0
  8 27  1  0
 10 28  1  0
 13 29  1  0
 14 30  1  0
 18 31  1  1
 18 32  1  0
 19 33  1  6
 19 34  1  0
 20 35  1  6
 20 36  1  0
 21 37  1  1
 21 38  1  0
 23 39  1  6
 23 40  1  0
M  END
>  <Pose ID>  (474)
48

>  <Score>  (474)
-5.473394870758057

>  <smiles>  (474)
O=C(c1ccc(Nc2ncc[nH]c2=O)cn1)N1CCCOCC1

$$$$

     RDKit          3D

 35 38  0  0  0  0  0  0  0  0999 V2000
   27.3150    7.8800  -10.1900 C   0  0  0  0  0  0  0  0  0  0  0  0
   28.4380    7.1400  -10.5230 C   0  0  0  0  0  0  0  0  0  0  0  0
   29.4280    7.7000  -11.3190 N   0  0  0  0  0  0  0  0  0  0  0  0
   26.5090    7.1400   -9.4140 N   0  0  0  0  0  0  0  0  0  0  0  0
   29.2970    9.0050  -11.7800 C   0  0  0  0  0  0  0  0  0  0  0  0
   28.1700    9.7470  -11.4440 C   0  0  0  0  0  0  0  0  0  0  0  0
   27.1790    9.1890  -10.6510 C   0  0  0  0  0  0  0  0  0  0  0  0
   30.1080    9.7540  -12.5460 N   0  0  0  0  0  0  0  0  0  0  0  0
   29.5700   10.9300  -12.7230 C   0  0  0  0  0  0  0  0  0  0  0  0
   28.3630   10.8650  -12.0400 C   0  0  0  0  0  0  0  0  0  0  0  0
   25.8980    7.6340   -8.2220 C   0  0  0  0  0  0  0  0  0  0  0  0
   25.2540    6.7310   -7.3840 N   0  0  0  0  0  0  0  0  0  0  0  0
   24.5460    7.1900   -6.2800 C   0  0  0  0  0  0  0  0  0  0  0  0
   24.4840    8.5540   -6.0130 C   0  0  0  0  0  0  0  0  0  0  0  0
   25.1250    9.4580   -6.8520 C   0  0  0  0  0  0  0  0  0  0  0  0
   25.8580    8.9930   -7.9410 C   0  0  0  0  0  0  0  0  0  0  0  0
   23.9720    6.3800   -5.5300 O   0  0  0  0  0  0  0  0  0  0  0  0
   29.9260   12.0900  -13.4000 C   0  0  0  0  0  0  0  0  0  0  0  0
   29.0730   13.1870  -13.3920 C   0  0  0  0  0  0  0  0  0  0  0  0
   27.8640   13.1240  -12.7090 C   0  0  0  0  0  0  0  0  0  0  0  0
   27.5090   11.9630  -12.0330 N   0  0  0  0  0  0  0  0  0  0  0  0
   23.7190    9.0520   -4.8110 C   0  0  1  0  0  0  0  0  0  0  0  0
   28.5452    6.1084  -10.1565 H   0  0  0  0  0  0  0  0  0  0  0  0
   30.2609    7.1477  -11.5684 H   0  0  0  0  0  0  0  0  0  0  0  0
   26.3215    6.1662   -9.6922 H   0  0  0  0  0  0  0  0  0  0  0  0
   26.2880    9.7772  -10.3862 H   0  0  0  0  0  0  0  0  0  0  0  0
   25.3017    5.7212   -7.5815 H   0  0  0  0  0  0  0  0  0  0  0  0
   25.0535   10.5381   -6.6563 H   0  0  0  0  0  0  0  0  0  0  0  0
   26.4054    9.7027   -8.5787 H   0  0  0  0  0  0  0  0  0  0  0  0
   30.8821   12.1399  -13.9417 H   0  0  0  0  0  0  0  0  0  0  0  0
   29.3548   14.1061  -13.9267 H   0  0  0  0  0  0  0  0  0  0  0  0
   27.1889   13.9924  -12.7036 H   0  0  0  0  0  0  0  0  0  0  0  0
   24.2253    8.7224   -3.8918 H   0  0  0  0  0  0  0  0  0  0  0  0
   23.6771   10.1510   -4.8326 H   0  0  0  0  0  0  0  0  0  0  0  0
   22.6971    8.6456   -4.8326 H   0  0  0  0  0  0  0  0  0  0  0  0
  1  7  1  0
  1  2  2  0
  1  4  1  0
  2  3  1  0
  3  5  1  0
  5  8  2  0
  5  6  1  0
  6 10  1  0
  6  7  2  0
  8  9  1  0
  9 18  1  0
  9 10  2  0
 10 21  1  0
 18 19  2  0
 19 20  1  0
 20 21  2  0
  4 11  1  0
 11 16  2  0
 11 12  1  0
 12 13  1  0
 13 14  1  0
 13 17  2  0
 14 15  2  0
 14 22  1  0
 15 16  1  0
  2 23  1  0
  3 24  1  0
  4 25  1  0
  7 26  1  0
 12 27  1  0
 15 28  1  0
 16 29  1  0
 18 30  1  0
 19 31  1  0
 20 32  1  0
 22 33  1  1
 22 34  1  0
 22 35  1  0
M  END
>  <Pose ID>  (475)
97

>  <Score>  (475)
-5.473324298858643

>  <smiles>  (475)
Cc1ccc(Nc2c[nH]c3nc4cccnc4c-3c2)[nH]c1=O

$$$$

     RDKit          3D

 38 41  0  0  0  0  0  0  0  0999 V2000
   27.4290    7.6910   -9.7050 C   0  0  0  0  0  0  0  0  0  0  0  0
   26.6680    6.7670   -9.0020 N   0  0  0  0  0  0  0  0  0  0  0  0
   25.9770    7.1590   -7.8620 C   0  0  0  0  0  0  0  0  0  0  0  0
   25.2840    6.1750   -7.2110 C   0  0  0  0  0  0  0  0  0  0  0  0
   24.5480    6.4630   -6.0690 N   0  0  0  0  0  0  0  0  0  0  0  0
   24.5170    7.7570   -5.5660 C   0  0  0  0  0  0  0  0  0  0  0  0
   25.2240    8.7680   -6.2080 C   0  0  0  0  0  0  0  0  0  0  0  0
   26.0460    8.4780   -7.4270 C   0  0  0  0  0  0  0  0  0  0  0  0
   27.5000    9.0100   -9.2690 C   0  0  0  0  0  0  0  0  0  0  0  0
   26.8070    9.4040   -8.1300 C   0  0  0  0  0  0  0  0  0  0  0  0
   28.1890    7.5500  -10.8420 N   0  0  0  0  0  0  0  0  0  0  0  0
   28.9130    8.3840  -11.4790 C   0  0  0  0  0  0  0  0  0  0  0  0
   30.3030    8.3270  -11.6670 N   0  0  0  0  0  0  0  0  0  0  0  0
   30.6260    9.4140  -12.3770 O   0  0  0  0  0  0  0  0  0  0  0  0
   29.5890   10.1220  -12.6570 C   0  0  0  0  0  0  0  0  0  0  0  0
   28.4680    9.4790  -12.1340 C   0  0  0  0  0  0  0  0  0  0  0  0
   23.7700    8.0440   -4.4110 C   0  0  0  0  0  0  0  0  0  0  0  0
   22.5340    8.5400   -4.3590 N   0  0  0  0  0  0  0  0  0  0  0  0
   24.2240    7.8120   -3.1040 C   0  0  0  0  0  0  0  0  0  0  0  0
   22.2070    8.6240   -3.0140 C   0  0  0  0  0  0  0  0  0  0  0  0
   23.4550    8.1240   -2.2260 C   0  0  0  0  0  0  0  0  0  0  0  0
   21.9330    8.9750   -5.6260 C   0  0  1  0  0  0  0  0  0  0  0  0
   20.5590    8.2310   -5.7230 C   0  0  1  0  0  0  0  0  0  0  0  0
   25.3101    5.1450   -7.5962 H   0  0  0  0  0  0  0  0  0  0  0  0
   25.1792    9.7947   -5.8156 H   0  0  0  0  0  0  0  0  0  0  0  0
   28.1045    9.7414   -9.8255 H   0  0  0  0  0  0  0  0  0  0  0  0
   26.8610   10.4474   -7.7858 H   0  0  0  0  0  0  0  0  0  0  0  0
   28.1702    6.6048  -11.2509 H   0  0  0  0  0  0  0  0  0  0  0  0
   29.5871   11.0710  -13.2132 H   0  0  0  0  0  0  0  0  0  0  0  0
   27.4212    9.8014  -12.2352 H   0  0  0  0  0  0  0  0  0  0  0  0
   25.2117    7.3762   -2.8932 H   0  0  0  0  0  0  0  0  0  0  0  0
   21.2553    8.9742   -2.5878 H   0  0  0  0  0  0  0  0  0  0  0  0
   23.6002    8.0687   -1.1370 H   0  0  0  0  0  0  0  0  0  0  0  0
   21.7796   10.0642   -5.6233 H   0  0  0  0  0  0  0  0  0  0  0  0
   22.5815    8.7416   -6.4833 H   0  0  0  0  0  0  0  0  0  0  0  0
   20.1807    8.0261   -4.7106 H   0  0  0  0  0  0  0  0  0  0  0  0
   19.8378    8.8618   -6.2633 H   0  0  0  0  0  0  0  0  0  0  0  0
   20.6931    7.2822   -6.2633 H   0  0  0  0  0  0  0  0  0  0  0  0
  1 11  1  0
  1  9  1  0
  1  2  2  0
  2  3  1  0
  3  8  2  0
  3  4  1  0
  4  5  2  0
  5  6  1  0
  6  7  2  0
  6 17  1  0
  7  8  1  0
  8 10  1  0
  9 10  2  0
 11 12  1  0
 12 16  1  0
 12 13  2  0
 13 14  1  0
 14 15  1  0
 15 16  2  0
 17 18  1  0
 17 19  2  0
 18 22  1  0
 18 20  1  0
 19 21  1  0
 20 21  2  0
 22 23  1  0
  4 24  1  0
  7 25  1  0
  9 26  1  0
 10 27  1  0
 11 28  1  0
 15 29  1  0
 16 30  1  0
 19 31  1  0
 20 32  1  0
 21 33  1  0
 22 34  1  1
 22 35  1  0
 23 36  1  1
 23 37  1  0
 23 38  1  0
M  END
>  <Pose ID>  (476)
29

>  <Score>  (476)
-5.470834255218506

>  <smiles>  (476)
CCn1cccc1-c1cc2ccc(Nc3ccon3)nc2cn1

$$$$

     RDKit          3D

 32 34  0  0  0  0  0  0  0  0999 V2000
   27.8830    7.8480  -10.2890 C   0  0  0  0  0  0  0  0  0  0  0  0
   28.8510    7.1280  -10.9780 C   0  0  0  0  0  0  0  0  0  0  0  0
   29.7060    7.7780  -11.8580 N   0  0  0  0  0  0  0  0  0  0  0  0
   29.5930    9.1510  -12.0510 C   0  0  0  0  0  0  0  0  0  0  0  0
   27.0720    7.0220   -9.3970 O   0  0  0  0  0  0  0  0  0  0  0  0
   28.6240    9.8710  -11.3610 C   0  0  0  0  0  0  0  0  0  0  0  0
   27.7700    9.2190  -10.4800 C   0  0  0  0  0  0  0  0  0  0  0  0
   30.2930    9.9920  -12.8370 N   0  0  0  0  0  0  0  0  0  0  0  0
   29.7920   11.2650  -12.6780 C   0  0  0  0  0  0  0  0  0  0  0  0
   28.7640   11.0200  -11.7420 C   0  0  0  0  0  0  0  0  0  0  0  0
   26.2440    7.5310   -8.3920 C   0  0  0  0  0  0  0  0  0  0  0  0
   25.4320    8.6030   -8.7250 N   0  0  0  0  0  0  0  0  0  0  0  0
   24.7240    8.9690   -7.5930 N   0  0  0  0  0  0  0  0  0  0  0  0
   25.0710    8.1460   -6.5930 C   0  0  0  0  0  0  0  0  0  0  0  0
   25.9680    7.2710   -7.0600 C   0  0  0  0  0  0  0  0  0  0  0  0
   23.7900   10.0650   -7.6300 C   0  0  1  0  0  0  0  0  0  0  0  0
   30.2220   12.5590  -13.3240 C   0  0  1  0  0  0  0  0  0  0  0  0
   24.5400    8.1990   -5.1830 C   0  0  1  0  0  0  0  0  0  0  0  0
   28.9401    6.0422  -10.8263 H   0  0  0  0  0  0  0  0  0  0  0  0
   30.4239    7.2436  -12.3679 H   0  0  0  0  0  0  0  0  0  0  0  0
   27.0041    9.7889   -9.9336 H   0  0  0  0  0  0  0  0  0  0  0  0
   28.1180   11.8303  -11.3730 H   0  0  0  0  0  0  0  0  0  0  0  0
   26.4217    6.4607   -6.4705 H   0  0  0  0  0  0  0  0  0  0  0  0
   23.5350   10.3643   -6.6027 H   0  0  0  0  0  0  0  0  0  0  0  0
   24.2445   10.9164   -8.1578 H   0  0  0  0  0  0  0  0  0  0  0  0
   22.8773    9.7513   -8.1578 H   0  0  0  0  0  0  0  0  0  0  0  0
   30.4665   13.2948  -12.5437 H   0  0  0  0  0  0  0  0  0  0  0  0
   31.1088   12.3795  -13.9496 H   0  0  0  0  0  0  0  0  0  0  0  0
   29.4042   12.9460  -13.9496 H   0  0  0  0  0  0  0  0  0  0  0  0
   25.3760    8.1156   -4.4730 H   0  0  0  0  0  0  0  0  0  0  0  0
   24.0175    9.1538   -5.0236 H   0  0  0  0  0  0  0  0  0  0  0  0
   23.8391    7.3664   -5.0236 H   0  0  0  0  0  0  0  0  0  0  0  0
  1  2  2  0
  1  7  1  0
  1  5  1  0
  2  3  1  0
  3  4  1  0
  4  8  2  0
  4  6  1  0
  6 10  1  0
  6  7  2  0
  8  9  1  0
  9 17  1  0
  9 10  2  0
  5 11  1  0
 11 12  2  0
 11 15  1  0
 12 13  1  0
 13 16  1  0
 13 14  1  0
 14 15  2  0
 14 18  1  0
  2 19  1  0
  3 20  1  0
  7 21  1  0
 10 22  1  0
 15 23  1  0
 16 24  1  1
 16 25  1  0
 16 26  1  0
 17 27  1  1
 17 28  1  0
 17 29  1  0
 18 30  1  1
 18 31  1  0
 18 32  1  0
M  END
>  <Pose ID>  (477)
478

>  <Score>  (477)
-5.4706711769104

>  <smiles>  (477)
Cc1cc2cc(Oc3cc(C)n(C)n3)c[nH]c-2n1

$$$$

     RDKit          3D

 37 40  0  0  0  0  0  0  0  0999 V2000
   27.8290    7.7460  -10.2650 C   0  0  0  0  0  0  0  0  0  0  0  0
   28.7130    7.0700  -11.0970 C   0  0  0  0  0  0  0  0  0  0  0  0
   29.4850    7.7780  -12.0100 N   0  0  0  0  0  0  0  0  0  0  0  0
   29.3730    9.1610  -12.0930 C   0  0  0  0  0  0  0  0  0  0  0  0
   27.0990    6.8620   -9.3600 O   0  0  0  0  0  0  0  0  0  0  0  0
   28.4860    9.8370  -11.2600 C   0  0  0  0  0  0  0  0  0  0  0  0
   27.7170    9.1280  -10.3470 C   0  0  0  0  0  0  0  0  0  0  0  0
   30.0030   10.0540  -12.8830 N   0  0  0  0  0  0  0  0  0  0  0  0
   29.5360   11.3140  -12.5860 C   0  0  0  0  0  0  0  0  0  0  0  0
   28.6030   11.0090  -11.5700 C   0  0  0  0  0  0  0  0  0  0  0  0
   26.3810    7.3010   -8.2410 C   0  0  0  0  0  0  0  0  0  0  0  0
   25.5550    8.4000   -8.4150 N   0  0  0  0  0  0  0  0  0  0  0  0
   25.0020    8.6660   -7.2530 N   0  0  0  0  0  0  0  0  0  0  0  0
   25.3670    7.8100   -6.2220 C   0  0  0  0  0  0  0  0  0  0  0  0
   26.2350    6.9470   -6.9120 C   0  0  0  0  0  0  0  0  0  0  0  0
   24.1030    9.6990   -7.0130 C   0  0  0  0  0  0  0  0  0  0  0  0
   23.5700    9.8770   -5.7430 C   0  0  0  0  0  0  0  0  0  0  0  0
   23.9370    9.0200   -4.7110 C   0  0  0  0  0  0  0  0  0  0  0  0
   24.8340    7.9870   -4.9500 N   0  0  0  0  0  0  0  0  0  0  0  0
   29.9160   12.6480  -13.1770 C   0  0  1  0  0  0  0  0  0  0  0  0
   27.7860   12.0850  -10.8990 C   0  0  1  0  0  0  0  0  0  0  0  0
   22.5940   10.9970   -5.4840 C   0  0  1  0  0  0  0  0  0  0  0  0
   28.8016    5.9754  -11.0330 H   0  0  0  0  0  0  0  0  0  0  0  0
   30.1412    7.2773  -12.6261 H   0  0  0  0  0  0  0  0  0  0  0  0
   27.0174    9.6620   -9.6871 H   0  0  0  0  0  0  0  0  0  0  0  0
   26.7409    6.0875   -6.4479 H   0  0  0  0  0  0  0  0  0  0  0  0
   23.8135   10.3762   -7.8301 H   0  0  0  0  0  0  0  0  0  0  0  0
   23.5164    9.1605   -3.7044 H   0  0  0  0  0  0  0  0  0  0  0  0
   30.1198   13.3634  -12.3666 H   0  0  0  0  0  0  0  0  0  0  0  0
   30.8165   12.5309  -13.7978 H   0  0  0  0  0  0  0  0  0  0  0  0
   29.0889   13.0230  -13.7978 H   0  0  0  0  0  0  0  0  0  0  0  0
   27.8664   11.9791   -9.8071 H   0  0  0  0  0  0  0  0  0  0  0  0
   28.1632   13.0734  -11.2003 H   0  0  0  0  0  0  0  0  0  0  0  0
   26.7326   11.9871  -11.2003 H   0  0  0  0  0  0  0  0  0  0  0  0
   22.4737   11.1350   -4.3993 H   0  0  0  0  0  0  0  0  0  0  0  0
   22.9753   11.9265   -5.9319 H   0  0  0  0  0  0  0  0  0  0  0  0
   21.6211   10.7464   -5.9319 H   0  0  0  0  0  0  0  0  0  0  0  0
  1  2  2  0
  1  7  1  0
  1  5  1  0
  2  3  1  0
  3  4  1  0
  4  8  2  0
  4  6  1  0
  6 10  1  0
  6  7  2  0
  8  9  1  0
  9 20  1  0
  9 10  2  0
 10 21  1  0
  5 11  1  0
 11 12  2  0
 11 15  1  0
 12 13  1  0
 13 16  1  0
 13 14  1  0
 14 15  2  0
 14 19  1  0
 16 17  2  0
 17 22  1  0
 17 18  1  0
 18 19  2  0
  2 23  1  0
  3 24  1  0
  7 25  1  0
 15 26  1  0
 16 27  1  0
 18 28  1  0
 20 29  1  1
 20 30  1  0
 20 31  1  0
 21 32  1  1
 21 33  1  0
 21 34  1  0
 22 35  1  1
 22 36  1  0
 22 37  1  0
M  END
>  <Pose ID>  (478)
372

>  <Score>  (478)
-5.4703145027160645

>  <smiles>  (478)
Cc1cnc2cc(Oc3c[nH]c4nc(C)c(C)c-4c3)nn2c1

$$$$

     RDKit          3D

 39 41  0  0  0  0  0  0  0  0999 V2000
   28.7750    9.5080  -11.9820 C   0  0  0  0  0  0  0  0  0  0  0  0
   29.4440    8.3220  -11.7400 C   0  0  0  0  0  0  0  0  0  0  0  0
   28.9260    7.4100  -10.8290 N   0  0  0  0  0  0  0  0  0  0  0  0
   27.7540    7.6990  -10.1420 C   0  0  0  0  0  0  0  0  0  0  0  0
   27.6100    9.8140  -11.2800 C   0  0  0  0  0  0  0  0  0  0  0  0
   27.0950    8.8990  -10.3680 C   0  0  0  0  0  0  0  0  0  0  0  0
   27.0730    6.9850   -9.2250 N   0  0  0  0  0  0  0  0  0  0  0  0
   25.9650    7.7090   -8.8380 C   0  0  0  0  0  0  0  0  0  0  0  0
   26.1280    8.8680   -9.6260 C   0  0  0  0  0  0  0  0  0  0  0  0
   24.9100    7.5530   -7.9720 N   0  0  0  0  0  0  0  0  0  0  0  0
   24.7270    8.3030   -6.8020 C   0  0  0  0  0  0  0  0  0  0  0  0
   24.0410    9.5090   -6.8690 C   0  0  0  0  0  0  0  0  0  0  0  0
   23.8500   10.2660   -5.7200 C   0  0  0  0  0  0  0  0  0  0  0  0
   24.3450    9.8150   -4.5020 C   0  0  0  0  0  0  0  0  0  0  0  0
   25.0340    8.6090   -4.4340 N   0  0  0  0  0  0  0  0  0  0  0  0
   25.2240    7.8540   -5.5860 C   0  0  0  0  0  0  0  0  0  0  0  0
   23.1490   11.4020   -6.0390 N   0  0  0  0  0  0  0  0  0  0  0  0
   23.7140   12.7210   -5.8390 C   0  0  0  0  0  0  0  0  0  0  0  0
   24.8550   12.8700   -5.5310 O   0  0  0  0  0  0  0  0  0  0  0  0
   22.6970   13.7820   -6.0360 C   0  0  1  0  0  0  0  0  0  0  0  0
   21.8670   14.1480   -4.7570 C   0  0  1  0  0  0  0  0  0  0  0  0
   23.5850   14.9940   -6.6000 C   0  0  1  0  0  0  0  0  0  0  0  0
   29.1638   10.2129  -12.7316 H   0  0  0  0  0  0  0  0  0  0  0  0
   30.3838    8.1014  -12.2674 H   0  0  0  0  0  0  0  0  0  0  0  0
   29.4123    6.5174  -10.6626 H   0  0  0  0  0  0  0  0  0  0  0  0
   27.1006   10.7746  -11.4467 H   0  0  0  0  0  0  0  0  0  0  0  0
   25.4158    9.7047   -9.5734 H   0  0  0  0  0  0  0  0  0  0  0  0
   24.2056    6.8362   -8.1978 H   0  0  0  0  0  0  0  0  0  0  0  0
   23.6486    9.8650   -7.8330 H   0  0  0  0  0  0  0  0  0  0  0  0
   24.1916   10.4125   -3.5912 H   0  0  0  0  0  0  0  0  0  0  0  0
   25.7688    6.8998   -5.5338 H   0  0  0  0  0  0  0  0  0  0  0  0
   22.1998   11.3148   -6.4294 H   0  0  0  0  0  0  0  0  0  0  0  0
   21.8895   13.4713   -6.7153 H   0  0  0  0  0  0  0  0  0  0  0  0
   22.4469   13.8923   -3.8580 H   0  0  0  0  0  0  0  0  0  0  0  0
   21.6483   15.2260   -4.7579 H   0  0  0  0  0  0  0  0  0  0  0  0
   20.9235   13.5824   -4.7579 H   0  0  0  0  0  0  0  0  0  0  0  0
   24.0033   15.5649   -5.7579 H   0  0  0  0  0  0  0  0  0  0  0  0
   24.4047   14.5931   -7.2143 H   0  0  0  0  0  0  0  0  0  0  0  0
   22.9557   15.6547   -7.2143 H   0  0  0  0  0  0  0  0  0  0  0  0
 11 10  1  0
 11 12  2  0
 11 16  1  0
 12 13  1  0
 13 17  1  0
 13 14  2  0
 14 15  1  0
 15 16  2  0
 17 18  1  0
 18 20  1  0
 18 19  2  0
 20 22  1  0
 20 21  1  0
 10  8  1  0
  1  2  2  0
  1  5  1  0
  2  3  1  0
  3  4  1  0
  4  6  1  0
  4  7  2  0
  5  6  2  0
  6  9  1  0
  7  8  1  0
  8  9  2  0
  1 23  1  0
  2 24  1  0
  3 25  1  0
  5 26  1  0
  9 27  1  0
 10 28  1  0
 12 29  1  0
 14 30  1  0
 16 31  1  0
 17 32  1  0
 20 33  1  6
 21 34  1  1
 21 35  1  0
 21 36  1  0
 22 37  1  1
 22 38  1  0
 22 39  1  0
M  END
>  <Pose ID>  (479)
219

>  <Score>  (479)
-5.4678850173950195

>  <smiles>  (479)
CC(C)C(=O)Nc1cncc(Nc2cc3ccc[nH]c-3n2)c1

$$$$

     RDKit          3D

 37 39  0  0  0  0  0  0  0  0999 V2000
   27.8050    7.8710   -9.7870 C   0  0  0  0  0  0  0  0  0  0  0  0
   26.9310    6.7940   -9.7480 N   0  0  0  0  0  0  0  0  0  0  0  0
   26.1660    6.5570   -8.6130 C   0  0  0  0  0  0  0  0  0  0  0  0
   27.9130    8.7170   -8.6850 N   0  0  0  0  0  0  0  0  0  0  0  0
   26.2770    7.4020   -7.5130 C   0  0  0  0  0  0  0  0  0  0  0  0
   27.0680    8.4590   -7.5430 C   0  0  0  0  0  0  0  0  0  0  0  0
   28.4910    8.0840  -10.8020 O   0  0  0  0  0  0  0  0  0  0  0  0
   25.5530    7.1300   -6.3760 N   0  0  0  0  0  0  0  0  0  0  0  0
   24.2680    7.6410   -6.0910 C   0  0  0  0  0  0  0  0  0  0  0  0
   23.1580    6.8780   -5.7440 N   0  0  0  0  0  0  0  0  0  0  0  0
   21.9430    7.5010   -5.4810 C   0  0  0  0  0  0  0  0  0  0  0  0
   21.8390    8.8850   -5.5640 C   0  0  0  0  0  0  0  0  0  0  0  0
   22.9490    9.6460   -5.9090 C   0  0  0  0  0  0  0  0  0  0  0  0
   24.1700    9.0210   -6.1460 C   0  0  0  0  0  0  0  0  0  0  0  0
   20.5220    9.2660   -5.2530 C   0  0  0  0  0  0  0  0  0  0  0  0
   19.3910    8.8640   -5.7190 N   0  0  0  0  0  0  0  0  0  0  0  0
   18.4220    9.5740   -4.9940 O   0  0  0  0  0  0  0  0  0  0  0  0
   20.3270   10.2860   -4.1750 C   0  0  0  0  0  0  0  0  0  0  0  0
   18.8340   10.3940   -4.1640 C   0  0  0  0  0  0  0  0  0  0  0  0
   17.9990   11.3170   -3.3110 C   0  0  1  0  0  0  0  0  0  0  0  0
   21.3520   11.0050   -3.3330 C   0  0  1  0  0  0  0  0  0  0  0  0
   22.3670   10.0000   -2.7510 C   0  0  1  0  0  0  0  0  0  0  0  0
   25.4736    5.7028   -8.5838 H   0  0  0  0  0  0  0  0  0  0  0  0
   28.5771    9.5044   -8.6851 H   0  0  0  0  0  0  0  0  0  0  0  0
   27.0833    9.1510   -6.6880 H   0  0  0  0  0  0  0  0  0  0  0  0
   25.9813    6.5051   -5.6782 H   0  0  0  0  0  0  0  0  0  0  0  0
   21.0641    6.8989   -5.2073 H   0  0  0  0  0  0  0  0  0  0  0  0
   22.8632   10.7393   -5.9946 H   0  0  0  0  0  0  0  0  0  0  0  0
   25.0595    9.6252   -6.3776 H   0  0  0  0  0  0  0  0  0  0  0  0
   18.1894   11.1065   -2.2482 H   0  0  0  0  0  0  0  0  0  0  0  0
   18.2655   12.3612   -3.5315 H   0  0  0  0  0  0  0  0  0  0  0  0
   16.9334   11.1561   -3.5315 H   0  0  0  0  0  0  0  0  0  0  0  0
   21.8843   11.7382   -3.9568 H   0  0  0  0  0  0  0  0  0  0  0  0
   20.8396   11.5163   -2.5047 H   0  0  0  0  0  0  0  0  0  0  0  0
   22.3302   10.0364   -1.6522 H   0  0  0  0  0  0  0  0  0  0  0  0
   22.1154    8.9852   -3.0929 H   0  0  0  0  0  0  0  0  0  0  0  0
   23.3793   10.2616   -3.0929 H   0  0  0  0  0  0  0  0  0  0  0  0
  8  5  1  0
  8  9  1  0
  9 14  1  0
  9 10  2  0
 10 11  1  0
 11 12  2  0
 12 13  1  0
 12 15  1  0
 13 14  2  0
  1  7  2  0
  1  2  1  0
  1  4  1  0
  2  3  2  0
  3  5  1  0
  4  6  1  0
  5  6  2  0
 15 16  2  0
 15 18  1  0
 16 17  1  0
 17 19  1  0
 18 19  2  0
 18 21  1  0
 19 20  1  0
 21 22  1  0
  3 23  1  0
  4 24  1  0
  6 25  1  0
  8 26  1  0
 11 27  1  0
 13 28  1  0
 14 29  1  0
 20 30  1  1
 20 31  1  0
 20 32  1  0
 21 33  1  6
 21 34  1  0
 22 35  1  1
 22 36  1  0
 22 37  1  0
M  END
>  <Pose ID>  (480)
121

>  <Score>  (480)
-5.4640679359436035

>  <smiles>  (480)
CCc1c(-c2ccc(Nc3cnc(=O)[nH]c3)nc2)noc1C

$$$$

     RDKit          3D

 29 32  0  0  0  0  0  0  0  0999 V2000
   26.8490    8.8320  -10.4680 C   0  0  0  0  0  0  0  0  0  0  0  0
   27.5370    7.6250  -10.3830 C   0  0  0  0  0  0  0  0  0  0  0  0
   28.7830    7.4930  -10.9860 N   0  0  0  0  0  0  0  0  0  0  0  0
   25.6280    9.2910   -9.9910 N   0  0  0  0  0  0  0  0  0  0  0  0
   29.3400    8.5630  -11.6760 C   0  0  0  0  0  0  0  0  0  0  0  0
   28.6520    9.7680  -11.7630 C   0  0  0  0  0  0  0  0  0  0  0  0
   27.4060    9.9000  -11.1590 C   0  0  0  0  0  0  0  0  0  0  0  0
   30.5090    8.6770  -12.3310 N   0  0  0  0  0  0  0  0  0  0  0  0
   30.6030    9.9460  -12.8560 C   0  0  0  0  0  0  0  0  0  0  0  0
   29.3740   10.4920  -12.4250 C   0  0  0  0  0  0  0  0  0  0  0  0
   25.2970    9.5140   -8.5640 C   0  0  0  0  0  0  0  0  0  0  0  0
   24.0960    9.9550   -8.0330 N   0  0  0  0  0  0  0  0  0  0  0  0
   23.9640   10.1560   -6.6640 C   0  0  0  0  0  0  0  0  0  0  0  0
   25.0350    9.8790   -5.8220 C   0  0  0  0  0  0  0  0  0  0  0  0
   26.2360    9.4210   -6.3500 C   0  0  0  0  0  0  0  0  0  0  0  0
   26.3660    9.2380   -7.7200 N   0  0  0  0  0  0  0  0  0  0  0  0
   27.1940    9.1770   -5.5950 O   0  0  0  0  0  0  0  0  0  0  0  0
   22.8790   10.6230   -5.9010 C   0  0  0  0  0  0  0  0  0  0  0  0
   23.2810   10.5980   -4.5870 C   0  0  0  0  0  0  0  0  0  0  0  0
   24.5180   10.2060   -4.5550 O   0  0  0  0  0  0  0  0  0  0  0  0
   27.0956    6.7766   -9.8395 H   0  0  0  0  0  0  0  0  0  0  0  0
   29.2938    6.6009  -10.9212 H   0  0  0  0  0  0  0  0  0  0  0  0
   24.8938    9.4925  -10.6847 H   0  0  0  0  0  0  0  0  0  0  0  0
   26.8605   10.8527  -11.2289 H   0  0  0  0  0  0  0  0  0  0  0  0
   31.4095   10.4059  -13.4460 H   0  0  0  0  0  0  0  0  0  0  0  0
   29.0824   11.5227  -12.6753 H   0  0  0  0  0  0  0  0  0  0  0  0
   27.2558    8.8973   -8.1113 H   0  0  0  0  0  0  0  0  0  0  0  0
   21.8988   10.9457   -6.2819 H   0  0  0  0  0  0  0  0  0  0  0  0
   22.6635   10.8633   -3.7162 H   0  0  0  0  0  0  0  0  0  0  0  0
  4  1  1  0
  4 11  1  0
 11 12  2  0
 11 16  1  0
 12 13  1  0
 13 18  1  0
 13 14  2  0
 14 15  1  0
 14 20  1  0
 15 16  1  0
 15 17  2  0
 18 19  2  0
 19 20  1  0
  1  7  1  0
  1  2  2  0
  2  3  1  0
  3  5  1  0
  5  8  2  0
  5  6  1  0
  6 10  1  0
  6  7  2  0
  8  9  1  0
  9 10  2  0
  2 21  1  0
  3 22  1  0
  4 23  1  0
  7 24  1  0
  9 25  1  0
 10 26  1  0
 16 27  1  0
 18 28  1  0
 19 29  1  0
M  END
>  <Pose ID>  (481)
16

>  <Score>  (481)
-5.462864875793457

>  <smiles>  (481)
O=c1[nH]c(Nc2c[nH]c3nccc-3c2)nc2ccoc12

$$$$

     RDKit          3D

 38 41  0  0  0  0  0  0  0  0999 V2000
   27.4600    7.7400   -9.7520 C   0  0  0  0  0  0  0  0  0  0  0  0
   26.7320    6.7970   -9.0360 N   0  0  0  0  0  0  0  0  0  0  0  0
   25.9930    7.1880   -7.9270 C   0  0  0  0  0  0  0  0  0  0  0  0
   25.3380    6.1880   -7.2600 C   0  0  0  0  0  0  0  0  0  0  0  0
   24.5600    6.4710   -6.1460 N   0  0  0  0  0  0  0  0  0  0  0  0
   24.4460    7.7760   -5.6870 C   0  0  0  0  0  0  0  0  0  0  0  0
   25.1160    8.8040   -6.3430 C   0  0  0  0  0  0  0  0  0  0  0  0
   25.9810    8.5200   -7.5330 C   0  0  0  0  0  0  0  0  0  0  0  0
   27.4490    9.0730   -9.3580 C   0  0  0  0  0  0  0  0  0  0  0  0
   26.7090    9.4630   -8.2490 C   0  0  0  0  0  0  0  0  0  0  0  0
   28.2540    7.6060  -10.8640 N   0  0  0  0  0  0  0  0  0  0  0  0
   28.9470    8.4560  -11.5140 C   0  0  0  0  0  0  0  0  0  0  0  0
   30.3450    8.4700  -11.6650 N   0  0  0  0  0  0  0  0  0  0  0  0
   30.6240    9.5490  -12.4040 O   0  0  0  0  0  0  0  0  0  0  0  0
   29.5600   10.1910  -12.7300 C   0  0  0  0  0  0  0  0  0  0  0  0
   28.4610    9.5060  -12.2140 C   0  0  0  0  0  0  0  0  0  0  0  0
   23.6560    8.0580   -4.5570 C   0  0  0  0  0  0  0  0  0  0  0  0
   22.9600    7.3110   -3.7400 N   0  0  0  0  0  0  0  0  0  0  0  0
   22.3750    8.0840   -2.8150 C   0  0  0  0  0  0  0  0  0  0  0  0
   23.5500    9.3650   -4.1050 C   0  0  0  0  0  0  0  0  0  0  0  0
   22.8190    9.4860   -3.1050 C   0  0  0  0  0  0  0  0  0  0  0  0
   22.4640   10.7480   -2.3580 C   0  0  1  0  0  0  0  0  0  0  0  0
   21.9130   11.8330   -3.1540 C   0  0  1  0  0  0  0  0  0  0  0  0
   25.4292    5.1494   -7.6106 H   0  0  0  0  0  0  0  0  0  0  0  0
   25.0093    9.8381   -5.9835 H   0  0  0  0  0  0  0  0  0  0  0  0
   28.0261    9.8188   -9.9243 H   0  0  0  0  0  0  0  0  0  0  0  0
   26.6992   10.5179   -7.9375 H   0  0  0  0  0  0  0  0  0  0  0  0
   28.2975    6.6481  -11.2401 H   0  0  0  0  0  0  0  0  0  0  0  0
   29.5226   11.1214  -13.3157 H   0  0  0  0  0  0  0  0  0  0  0  0
   27.4016    9.7691  -12.3501 H   0  0  0  0  0  0  0  0  0  0  0  0
   22.8746    6.2862   -3.7985 H   0  0  0  0  0  0  0  0  0  0  0  0
   21.7048    7.7562   -2.0067 H   0  0  0  0  0  0  0  0  0  0  0  0
   24.0623   10.2124   -4.5839 H   0  0  0  0  0  0  0  0  0  0  0  0
   21.7220   10.4854   -1.5896 H   0  0  0  0  0  0  0  0  0  0  0  0
   23.4149   11.1303   -1.9583 H   0  0  0  0  0  0  0  0  0  0  0  0
   21.5170   12.6128   -2.4868 H   0  0  0  0  0  0  0  0  0  0  0  0
   22.7034   12.2602   -3.7887 H   0  0  0  0  0  0  0  0  0  0  0  0
   21.1018   11.4468   -3.7887 H   0  0  0  0  0  0  0  0  0  0  0  0
  1 11  1  0
  1  9  1  0
  1  2  2  0
  2  3  1  0
  3  8  2  0
  3  4  1  0
  4  5  2  0
  5  6  1  0
  6  7  2  0
  6 17  1  0
  7  8  1  0
  8 10  1  0
  9 10  2  0
 11 12  1  0
 12 16  1  0
 12 13  2  0
 13 14  1  0
 14 15  1  0
 15 16  2  0
 17 20  2  0
 17 18  1  0
 18 19  1  0
 19 21  2  0
 20 21  1  0
 21 22  1  0
 22 23  1  0
  4 24  1  0
  7 25  1  0
  9 26  1  0
 10 27  1  0
 11 28  1  0
 15 29  1  0
 16 30  1  0
 18 31  1  0
 19 32  1  0
 20 33  1  0
 22 34  1  1
 22 35  1  0
 23 36  1  1
 23 37  1  0
 23 38  1  0
M  END
>  <Pose ID>  (482)
34

>  <Score>  (482)
-5.461846828460693

>  <smiles>  (482)
CCc1c[nH]c(-c2cc3ccc(Nc4ccon4)nc3cn2)c1

$$$$

     RDKit          3D

 39 42  0  0  0  0  0  0  0  0999 V2000
   27.3960    7.9570  -10.1640 C   0  0  0  0  0  0  0  0  0  0  0  0
   28.4890    7.1780  -10.5070 C   0  0  0  0  0  0  0  0  0  0  0  0
   29.4910    7.7030  -11.3150 N   0  0  0  0  0  0  0  0  0  0  0  0
   26.5750    7.2450   -9.3780 N   0  0  0  0  0  0  0  0  0  0  0  0
   29.3990    9.0090  -11.7760 C   0  0  0  0  0  0  0  0  0  0  0  0
   28.3030    9.7910  -11.4320 C   0  0  0  0  0  0  0  0  0  0  0  0
   27.3020    9.2690  -10.6260 C   0  0  0  0  0  0  0  0  0  0  0  0
   30.2280    9.7280  -12.5560 N   0  0  0  0  0  0  0  0  0  0  0  0
   29.6900   10.9820  -12.7320 C   0  0  0  0  0  0  0  0  0  0  0  0
   28.4990   10.8590  -11.9860 C   0  0  0  0  0  0  0  0  0  0  0  0
   25.9940    7.7650   -8.1800 C   0  0  0  0  0  0  0  0  0  0  0  0
   25.3300    6.8860   -7.3340 N   0  0  0  0  0  0  0  0  0  0  0  0
   24.6500    7.3710   -6.2220 C   0  0  0  0  0  0  0  0  0  0  0  0
   24.6360    8.7350   -5.9580 C   0  0  0  0  0  0  0  0  0  0  0  0
   25.3000    9.6160   -6.8060 C   0  0  0  0  0  0  0  0  0  0  0  0
   26.0050    9.1240   -7.9010 C   0  0  0  0  0  0  0  0  0  0  0  0
   23.9180    6.7060   -5.2350 C   0  0  0  0  0  0  0  0  0  0  0  0
   23.5910    7.6670   -4.3050 N   0  0  0  0  0  0  0  0  0  0  0  0
   24.0050    8.8540   -4.6100 C   0  0  0  0  0  0  0  0  0  0  0  0
   23.8770   10.1030   -3.7750 C   0  0  1  0  0  0  0  0  0  0  0  0
   22.7660   10.9450   -4.2790 C   0  0  1  0  0  0  0  0  0  0  0  0
   30.2240   12.1620  -13.5060 C   0  0  1  0  0  0  0  0  0  0  0  0
   28.5640    6.1438  -10.1399 H   0  0  0  0  0  0  0  0  0  0  0  0
   30.3022    7.1225  -11.5717 H   0  0  0  0  0  0  0  0  0  0  0  0
   26.3525    6.2770   -9.6507 H   0  0  0  0  0  0  0  0  0  0  0  0
   26.4357    9.8890  -10.3519 H   0  0  0  0  0  0  0  0  0  0  0  0
   27.7806   11.6883  -11.9079 H   0  0  0  0  0  0  0  0  0  0  0  0
   25.3412    5.8749   -7.5302 H   0  0  0  0  0  0  0  0  0  0  0  0
   25.2680   10.6982   -6.6117 H   0  0  0  0  0  0  0  0  0  0  0  0
   26.5710    9.8130   -8.5452 H   0  0  0  0  0  0  0  0  0  0  0  0
   23.6574    5.6377   -5.2069 H   0  0  0  0  0  0  0  0  0  0  0  0
   23.6753    9.8226   -2.7306 H   0  0  0  0  0  0  0  0  0  0  0  0
   24.8156   10.6733   -3.8366 H   0  0  0  0  0  0  0  0  0  0  0  0
   22.2102   11.3663   -3.4284 H   0  0  0  0  0  0  0  0  0  0  0  0
   23.1742   11.7626   -4.8913 H   0  0  0  0  0  0  0  0  0  0  0  0
   22.0892   10.3310   -4.8913 H   0  0  0  0  0  0  0  0  0  0  0  0
   30.5731   12.9334  -12.8038 H   0  0  0  0  0  0  0  0  0  0  0  0
   31.0624   11.8361  -14.1392 H   0  0  0  0  0  0  0  0  0  0  0  0
   29.4258   12.5767  -14.1392 H   0  0  0  0  0  0  0  0  0  0  0  0
  4  1  1  0
  4 11  1  0
  1  7  1  0
  1  2  2  0
  2  3  1  0
  3  5  1  0
  5  8  2  0
  5  6  1  0
  6 10  1  0
  6  7  2  0
  8  9  1  0
  9 22  1  0
  9 10  2  0
 11 16  2  0
 11 12  1  0
 12 13  1  0
 13 14  1  0
 13 17  2  0
 14 15  2  0
 14 19  1  0
 15 16  1  0
 17 18  1  0
 18 19  2  0
 19 20  1  0
 20 21  1  0
  2 23  1  0
  3 24  1  0
  4 25  1  0
  7 26  1  0
 10 27  1  0
 12 28  1  0
 15 29  1  0
 16 30  1  0
 17 31  1  0
 20 32  1  1
 20 33  1  0
 21 34  1  1
 21 35  1  0
 21 36  1  0
 22 37  1  1
 22 38  1  0
 22 39  1  0
M  END
>  <Pose ID>  (483)
78

>  <Score>  (483)
-5.460840702056885

>  <smiles>  (483)
CCc1ncc2[nH]c(Nc3c[nH]c4nc(C)cc-4c3)ccc1-2

$$$$

     RDKit          3D

 32 35  0  0  0  0  0  0  0  0999 V2000
   27.9840    7.8840  -10.4830 C   0  0  0  0  0  0  0  0  0  0  0  0
   28.7930    7.0860  -11.2800 C   0  0  0  0  0  0  0  0  0  0  0  0
   29.7020    7.6710  -12.1550 N   0  0  0  0  0  0  0  0  0  0  0  0
   29.8020    9.0550  -12.2290 C   0  0  0  0  0  0  0  0  0  0  0  0
   27.0910    7.1190   -9.6160 O   0  0  0  0  0  0  0  0  0  0  0  0
   28.9910    9.8550  -11.4300 C   0  0  0  0  0  0  0  0  0  0  0  0
   28.0840    9.2690  -10.5570 C   0  0  0  0  0  0  0  0  0  0  0  0
   30.5910    9.8440  -12.9840 N   0  0  0  0  0  0  0  0  0  0  0  0
   30.3070   11.1610  -12.6970 C   0  0  0  0  0  0  0  0  0  0  0  0
   29.2960   10.9960  -11.7240 C   0  0  0  0  0  0  0  0  0  0  0  0
   26.4000    7.6590   -8.5260 C   0  0  0  0  0  0  0  0  0  0  0  0
   25.7550    8.8690   -8.7250 N   0  0  0  0  0  0  0  0  0  0  0  0
   25.1660    9.2400   -7.5320 N   0  0  0  0  0  0  0  0  0  0  0  0
   25.4210    8.2880   -6.6210 C   0  0  0  0  0  0  0  0  0  0  0  0
   26.1440    7.3300   -7.2070 C   0  0  0  0  0  0  0  0  0  0  0  0
   24.4960   10.3120   -7.3790 C   0  0  0  0  0  0  0  0  0  0  0  0
   23.8260   10.7420   -6.2400 N   0  0  0  0  0  0  0  0  0  0  0  0
   23.1250   11.9420   -6.2580 C   0  0  0  0  0  0  0  0  0  0  0  0
   24.4630   11.0810   -8.5360 C   0  0  0  0  0  0  0  0  0  0  0  0
   23.7620   12.2810   -8.5540 C   0  0  0  0  0  0  0  0  0  0  0  0
   23.0830   12.7050   -7.4420 C   0  0  0  0  0  0  0  0  0  0  0  0
   28.7151    5.9904  -11.2195 H   0  0  0  0  0  0  0  0  0  0  0  0
   30.3008    7.0787  -12.7479 H   0  0  0  0  0  0  0  0  0  0  0  0
   27.4441    9.9008   -9.9235 H   0  0  0  0  0  0  0  0  0  0  0  0
   30.7444   12.0822  -13.1094 H   0  0  0  0  0  0  0  0  0  0  0  0
   28.8060   11.8608  -11.2528 H   0  0  0  0  0  0  0  0  0  0  0  0
   25.0911    8.2955   -5.5717 H   0  0  0  0  0  0  0  0  0  0  0  0
   26.4872    6.4100   -6.7112 H   0  0  0  0  0  0  0  0  0  0  0  0
   22.6064   12.2938   -5.3540 H   0  0  0  0  0  0  0  0  0  0  0  0
   24.9920   10.7398   -9.4381 H   0  0  0  0  0  0  0  0  0  0  0  0
   23.7522   12.8944   -9.4670 H   0  0  0  0  0  0  0  0  0  0  0  0
   22.5053   13.6406   -7.4735 H   0  0  0  0  0  0  0  0  0  0  0  0
  5  1  1  0
  5 11  1  0
 11 12  2  0
 11 15  1  0
 12 13  1  0
 13 16  1  0
 13 14  1  0
 14 15  2  0
 16 19  1  0
 16 17  2  0
 17 18  1  0
 18 21  2  0
 19 20  2  0
 20 21  1  0
  1  2  2  0
  1  7  1  0
  2  3  1  0
  3  4  1  0
  4  8  2  0
  4  6  1  0
  6 10  1  0
  6  7  2  0
  8  9  1  0
  9 10  2  0
  2 22  1  0
  3 23  1  0
  7 24  1  0
  9 25  1  0
 10 26  1  0
 14 27  1  0
 15 28  1  0
 18 29  1  0
 19 30  1  0
 20 31  1  0
 21 32  1  0
M  END
>  <Pose ID>  (484)
231

>  <Score>  (484)
-5.450256824493408

>  <smiles>  (484)
c1ccc(-n2ccc(Oc3c[nH]c4nccc-4c3)n2)nc1

$$$$

     RDKit          3D

 32 35  0  0  0  0  0  0  0  0999 V2000
   27.5070    7.7230   -9.7660 C   0  0  0  0  0  0  0  0  0  0  0  0
   26.7380    6.8010   -9.0660 N   0  0  0  0  0  0  0  0  0  0  0  0
   26.0430    7.1970   -7.9300 C   0  0  0  0  0  0  0  0  0  0  0  0
   25.3430    6.2150   -7.2830 C   0  0  0  0  0  0  0  0  0  0  0  0
   24.6030    6.5050   -6.1450 N   0  0  0  0  0  0  0  0  0  0  0  0
   24.5740    7.7980   -5.6420 C   0  0  0  0  0  0  0  0  0  0  0  0
   25.2910    8.8080   -6.2780 C   0  0  0  0  0  0  0  0  0  0  0  0
   26.1170    8.5130   -7.4930 C   0  0  0  0  0  0  0  0  0  0  0  0
   27.5820    9.0410   -9.3280 C   0  0  0  0  0  0  0  0  0  0  0  0
   26.8860    9.4360   -8.1920 C   0  0  0  0  0  0  0  0  0  0  0  0
   28.2720    7.5800  -10.8970 N   0  0  0  0  0  0  0  0  0  0  0  0
   29.0020    8.4100  -11.5320 C   0  0  0  0  0  0  0  0  0  0  0  0
   30.3950    8.3480  -11.7110 N   0  0  0  0  0  0  0  0  0  0  0  0
   30.7240    9.4330  -12.4200 O   0  0  0  0  0  0  0  0  0  0  0  0
   29.6940   10.1470  -12.7040 C   0  0  0  0  0  0  0  0  0  0  0  0
   28.5660    9.5100  -12.1880 C   0  0  0  0  0  0  0  0  0  0  0  0
   23.8230    8.0880   -4.4880 C   0  0  0  0  0  0  0  0  0  0  0  0
   23.0990    7.3560   -3.6820 N   0  0  0  0  0  0  0  0  0  0  0  0
   22.5770    8.1300   -2.7210 C   0  0  0  0  0  0  0  0  0  0  0  0
   23.8020    9.3840   -3.9920 C   0  0  0  0  0  0  0  0  0  0  0  0
   23.0980    9.5130   -2.9740 C   0  0  0  0  0  0  0  0  0  0  0  0
   25.3670    5.1852   -7.6688 H   0  0  0  0  0  0  0  0  0  0  0  0
   25.2506    9.8342   -5.8840 H   0  0  0  0  0  0  0  0  0  0  0  0
   28.1921    9.7705   -9.8808 H   0  0  0  0  0  0  0  0  0  0  0  0
   26.9436   10.4786   -7.8461 H   0  0  0  0  0  0  0  0  0  0  0  0
   28.2527    6.6344  -11.3048 H   0  0  0  0  0  0  0  0  0  0  0  0
   29.7010   11.0970  -13.2586 H   0  0  0  0  0  0  0  0  0  0  0  0
   27.5217    9.8389  -12.2940 H   0  0  0  0  0  0  0  0  0  0  0  0
   22.9525    6.3405   -3.7720 H   0  0  0  0  0  0  0  0  0  0  0  0
   21.9030    7.8148   -1.9108 H   0  0  0  0  0  0  0  0  0  0  0  0
   24.3538   10.2160   -4.4537 H   0  0  0  0  0  0  0  0  0  0  0  0
   22.9034   10.4279   -2.3951 H   0  0  0  0  0  0  0  0  0  0  0  0
  1 11  1  0
  1  9  1  0
  1  2  2  0
  2  3  1  0
  3  8  2  0
  3  4  1  0
  4  5  2  0
  5  6  1  0
  6  7  2  0
  6 17  1  0
  7  8  1  0
  8 10  1  0
  9 10  2  0
 11 12  1  0
 12 16  1  0
 12 13  2  0
 13 14  1  0
 14 15  1  0
 15 16  2  0
 17 20  2  0
 17 18  1  0
 18 19  1  0
 19 21  2  0
 20 21  1  0
  4 22  1  0
  7 23  1  0
  9 24  1  0
 10 25  1  0
 11 26  1  0
 15 27  1  0
 16 28  1  0
 18 29  1  0
 19 30  1  0
 20 31  1  0
 21 32  1  0
M  END
>  <Pose ID>  (485)
31

>  <Score>  (485)
-5.446822643280029

>  <smiles>  (485)
c1c[nH]c(-c2cc3ccc(Nc4ccon4)nc3cn2)c1

$$$$

     RDKit          3D

 30 32  0  0  0  0  0  0  0  0999 V2000
   27.1170    9.5350  -10.1030 C   0  0  0  0  0  0  0  0  0  0  0  0
   27.7890    8.4190  -10.5800 C   0  0  0  0  0  0  0  0  0  0  0  0
   28.7790    8.5590  -11.7340 N   0  0  0  0  0  0  0  0  0  0  0  0
   26.2020    9.4000   -9.0420 C   0  0  0  0  0  0  0  0  0  0  0  0
   26.0950    8.0910   -8.5820 C   0  0  0  0  0  0  0  0  0  0  0  0
   26.6610    7.0450   -8.9590 C   0  0  0  0  0  0  0  0  0  0  0  0
   27.5630    7.1730  -10.0080 C   0  0  0  0  0  0  0  0  0  0  0  0
   25.4520   10.4060   -8.4460 N   0  0  0  0  0  0  0  0  0  0  0  0
   24.5970   10.1090   -7.3930 C   0  0  0  0  0  0  0  0  0  0  0  0
   24.4890    8.8000   -6.9340 N   0  0  0  0  0  0  0  0  0  0  0  0
   25.2290    7.7880   -7.5220 C   0  0  0  0  0  0  0  0  0  0  0  0
   28.9920    9.7930  -12.2450 C   0  0  0  0  0  0  0  0  0  0  0  0
   30.3200   10.1530  -12.4340 C   0  0  0  0  0  0  0  0  0  0  0  0
   30.6340   11.4050  -12.9480 C   0  0  0  0  0  0  0  0  0  0  0  0
   29.6190   12.2980  -13.2720 C   0  0  0  0  0  0  0  0  0  0  0  0
   28.2900   11.9370  -13.0830 C   0  0  0  0  0  0  0  0  0  0  0  0
   27.9770   10.6850  -12.5710 N   0  0  0  0  0  0  0  0  0  0  0  0
   29.9610   13.6580  -13.8290 C   0  0  1  0  0  0  0  0  0  0  0  0
   27.2987   10.5224  -10.5526 H   0  0  0  0  0  0  0  0  0  0  0  0
   29.2707    7.7369  -12.1126 H   0  0  0  0  0  0  0  0  0  0  0  0
   26.4568    6.0731   -8.4860 H   0  0  0  0  0  0  0  0  0  0  0  0
   28.0977    6.2888  -10.3853 H   0  0  0  0  0  0  0  0  0  0  0  0
   24.0055   10.9080   -6.9221 H   0  0  0  0  0  0  0  0  0  0  0  0
   25.1380    6.7533   -7.1598 H   0  0  0  0  0  0  0  0  0  0  0  0
   31.1232    9.4469  -12.1767 H   0  0  0  0  0  0  0  0  0  0  0  0
   31.6858   11.6897  -13.0986 H   0  0  0  0  0  0  0  0  0  0  0  0
   27.4864   12.6432  -13.3391 H   0  0  0  0  0  0  0  0  0  0  0  0
   30.1375   14.3598  -13.0005 H   0  0  0  0  0  0  0  0  0  0  0  0
   30.8685   13.5838  -14.4463 H   0  0  0  0  0  0  0  0  0  0  0  0
   29.1264   14.0219  -14.4463 H   0  0  0  0  0  0  0  0  0  0  0  0
  1  2  2  0
  1  4  1  0
  2  3  1  0
  2  7  1  0
  4  5  2  0
  4  8  1  0
  5  6  1  0
  5 11  1  0
  6  7  2  0
  8  9  2  0
  9 10  1  0
 10 11  2  0
  3 12  1  0
 12 17  1  0
 12 13  2  0
 13 14  1  0
 14 15  2  0
 15 18  1  0
 15 16  1  0
 16 17  2  0
  1 19  1  0
  3 20  1  0
  6 21  1  0
  7 22  1  0
  9 23  1  0
 11 24  1  0
 13 25  1  0
 14 26  1  0
 16 27  1  0
 18 28  1  1
 18 29  1  0
 18 30  1  0
M  END
>  <Pose ID>  (486)
3

>  <Score>  (486)
-5.446404933929443

>  <smiles>  (486)
Cc1ccc(Nc2ccc3cncnc3c2)nc1

$$$$

     RDKit          3D

 37 39  0  0  0  0  0  0  0  0999 V2000
   28.4910   10.3030  -11.9740 C   0  0  0  0  0  0  0  0  0  0  0  0
   29.4790    9.3330  -11.8480 C   0  0  0  0  0  0  0  0  0  0  0  0
   29.2880    8.1700  -11.1160 N   0  0  0  0  0  0  0  0  0  0  0  0
   28.0510    7.9430  -10.5240 C   0  0  0  0  0  0  0  0  0  0  0  0
   27.0290    8.8750  -10.6650 C   0  0  0  0  0  0  0  0  0  0  0  0
   27.2400   10.0180  -11.4110 C   0  0  0  0  0  0  0  0  0  0  0  0
   27.8570    6.9040   -9.8710 O   0  0  0  0  0  0  0  0  0  0  0  0
   30.7260    9.5360  -12.4320 N   0  0  0  0  0  0  0  0  0  0  0  0
   30.9810   10.7020  -13.1410 C   0  0  0  0  0  0  0  0  0  0  0  0
   29.9900   11.6690  -13.2670 C   0  0  0  0  0  0  0  0  0  0  0  0
   28.7420   11.4650  -12.6710 C   0  0  0  0  0  0  0  0  0  0  0  0
   25.7480    8.8890  -10.1720 N   0  0  0  0  0  0  0  0  0  0  0  0
   25.4620    8.8450   -8.7180 C   0  0  0  0  0  0  0  0  0  0  0  0
   25.0280    7.6460   -8.1610 C   0  0  0  0  0  0  0  0  0  0  0  0
   24.7530    7.5690   -6.8020 C   0  0  0  0  0  0  0  0  0  0  0  0
   24.9120    8.6910   -5.9960 C   0  0  0  0  0  0  0  0  0  0  0  0
   25.3430    9.8890   -6.5520 C   0  0  0  0  0  0  0  0  0  0  0  0
   25.6180    9.9670   -7.9110 C   0  0  0  0  0  0  0  0  0  0  0  0
   25.4980   10.9920   -5.7580 N   0  0  0  0  0  0  0  0  0  0  0  0
   26.5080   12.0040   -6.0950 C   0  0  1  0  0  0  0  0  0  0  0  0
   25.2570   11.1730   -4.3390 C   0  0  1  0  0  0  0  0  0  0  0  0
   30.0508    7.4856  -11.0129 H   0  0  0  0  0  0  0  0  0  0  0  0
   26.4076   10.7201  -11.5666 H   0  0  0  0  0  0  0  0  0  0  0  0
   31.9666   10.8608  -13.6029 H   0  0  0  0  0  0  0  0  0  0  0  0
   30.1872   12.5911  -13.8335 H   0  0  0  0  0  0  0  0  0  0  0  0
   27.9594   12.2330  -12.7585 H   0  0  0  0  0  0  0  0  0  0  0  0
   24.9599    8.9315  -10.8338 H   0  0  0  0  0  0  0  0  0  0  0  0
   24.9026    6.7580   -8.7980 H   0  0  0  0  0  0  0  0  0  0  0  0
   24.4095    6.6206   -6.3631 H   0  0  0  0  0  0  0  0  0  0  0  0
   24.6967    8.6300   -4.9190 H   0  0  0  0  0  0  0  0  0  0  0  0
   25.9593   10.9164   -8.3493 H   0  0  0  0  0  0  0  0  0  0  0  0
   26.9282   12.4250   -5.1697 H   0  0  0  0  0  0  0  0  0  0  0  0
   27.3118   11.5379   -6.6838 H   0  0  0  0  0  0  0  0  0  0  0  0
   26.0404   12.8069   -6.6838 H   0  0  0  0  0  0  0  0  0  0  0  0
   26.0072   10.6095   -3.7649 H   0  0  0  0  0  0  0  0  0  0  0  0
   25.3299   12.2415   -4.0881 H   0  0  0  0  0  0  0  0  0  0  0  0
   24.2511   10.8052   -4.0881 H   0  0  0  0  0  0  0  0  0  0  0  0
  1 11  1  0
  1  2  2  0
  1  6  1  0
  2  8  1  0
  2  3  1  0
  3  4  1  0
  4  5  1  0
  4  7  2  0
  5  6  2  0
  5 12  1  0
  8  9  2  0
  9 10  1  0
 10 11  2  0
 12 13  1  0
 13 14  2  0
 13 18  1  0
 14 15  1  0
 15 16  2  0
 16 17  1  0
 17 18  2  0
 17 19  1  0
 19 20  1  0
 19 21  1  0
  3 22  1  0
  6 23  1  0
  9 24  1  0
 10 25  1  0
 11 26  1  0
 12 27  1  0
 14 28  1  0
 15 29  1  0
 16 30  1  0
 18 31  1  0
 20 32  1  1
 20 33  1  0
 20 34  1  0
 21 35  1  1
 21 36  1  0
 21 37  1  0
M  END
>  <Pose ID>  (487)
184

>  <Score>  (487)
-5.445409297943115

>  <smiles>  (487)
CN(C)c1cccc(Nc2cc3cccnc3[nH]c2=O)c1

$$$$

     RDKit          3D

 20 21  0  0  0  0  0  0  0  0999 V2000
   28.5890    7.2120  -11.2520 C   0  0  0  0  0  0  0  0  0  0  0  0
   27.7740    6.8630  -10.1820 N   0  0  0  0  0  0  0  0  0  0  0  0
   27.0960    7.8480   -9.4750 C   0  0  0  0  0  0  0  0  0  0  0  0
   27.2300    9.1830   -9.8400 C   0  0  0  0  0  0  0  0  0  0  0  0
   26.5620   10.1510   -9.0520 C   0  0  0  0  0  0  0  0  0  0  0  0
   25.7620    9.7620   -7.9850 C   0  0  0  0  0  0  0  0  0  0  0  0
   25.6260    8.4140   -7.6730 C   0  0  0  0  0  0  0  0  0  0  0  0
   26.2900    7.4560   -8.4270 C   0  0  0  0  0  0  0  0  0  0  0  0
   28.7240    8.5460  -11.6160 C   0  0  0  0  0  0  0  0  0  0  0  0
   28.0460    9.5320  -10.9100 C   0  0  0  0  0  0  0  0  0  0  0  0
   26.7210   11.6160   -9.3730 C   0  0  1  0  0  0  0  0  0  0  0  0
   29.1272    6.4322  -11.8108 H   0  0  0  0  0  0  0  0  0  0  0  0
   25.2360   10.5207   -7.3868 H   0  0  0  0  0  0  0  0  0  0  0  0
   24.9920    8.1064   -6.8283 H   0  0  0  0  0  0  0  0  0  0  0  0
   26.1736    6.3883   -8.1894 H   0  0  0  0  0  0  0  0  0  0  0  0
   29.3682    8.8218  -12.4639 H   0  0  0  0  0  0  0  0  0  0  0  0
   28.1548   10.5882  -11.1975 H   0  0  0  0  0  0  0  0  0  0  0  0
   26.7835   12.1916   -8.4377 H   0  0  0  0  0  0  0  0  0  0  0  0
   27.6406   11.7655   -9.9577 H   0  0  0  0  0  0  0  0  0  0  0  0
   25.8548   11.9594   -9.9577 H   0  0  0  0  0  0  0  0  0  0  0  0
  1  9  2  0
  1  2  1  0
  2  3  2  0
  3  4  1  0
  3  8  1  0
  4 10  2  0
  4  5  1  0
  5 11  1  0
  5  6  2  0
  6  7  1  0
  7  8  2  0
  9 10  1  0
  1 12  1  0
  6 13  1  0
  7 14  1  0
  8 15  1  0
  9 16  1  0
 10 17  1  0
 11 18  1  1
 11 19  1  0
 11 20  1  0
M  END
>  <Pose ID>  (488)
4

>  <Score>  (488)
-5.445381164550781

>  <smiles>  (488)
Cc1cccc2ncccc12

$$$$

     RDKit          3D

 38 41  0  0  0  0  0  0  0  0999 V2000
   27.1060    8.1430  -10.0620 C   0  0  0  0  0  0  0  0  0  0  0  0
   27.8130    7.1640  -10.7420 C   0  0  0  0  0  0  0  0  0  0  0  0
   28.8220    7.5240  -11.6300 N   0  0  0  0  0  0  0  0  0  0  0  0
   29.1200    8.8650  -11.8360 C   0  0  0  0  0  0  0  0  0  0  0  0
   26.0890    7.6030   -9.1620 O   0  0  0  0  0  0  0  0  0  0  0  0
   28.4090    9.8460  -11.1550 C   0  0  0  0  0  0  0  0  0  0  0  0
   27.4020    9.4850  -10.2660 C   0  0  0  0  0  0  0  0  0  0  0  0
   30.0340    9.4530  -12.6290 N   0  0  0  0  0  0  0  0  0  0  0  0
   29.9330   10.8190  -12.4850 C   0  0  0  0  0  0  0  0  0  0  0  0
   28.8810   10.9000  -11.5470 C   0  0  0  0  0  0  0  0  0  0  0  0
   25.4500    8.3450   -8.1610 C   0  0  0  0  0  0  0  0  0  0  0  0
   24.9920    9.6060   -8.5070 N   0  0  0  0  0  0  0  0  0  0  0  0
   24.4270   10.1760   -7.3810 N   0  0  0  0  0  0  0  0  0  0  0  0
   24.5180    9.2960   -6.3700 C   0  0  0  0  0  0  0  0  0  0  0  0
   25.1140    8.1920   -6.8270 C   0  0  0  0  0  0  0  0  0  0  0  0
   23.9210   11.3440   -7.3950 C   0  0  0  0  0  0  0  0  0  0  0  0
   24.0720   11.9120   -8.6550 C   0  0  0  0  0  0  0  0  0  0  0  0
   23.3160   12.0670   -6.3750 C   0  0  0  0  0  0  0  0  0  0  0  0
   22.8620   13.3600   -6.6130 C   0  0  0  0  0  0  0  0  0  0  0  0
   23.6180   13.2040   -8.8940 C   0  0  0  0  0  0  0  0  0  0  0  0
   23.0140   13.9280   -7.8730 N   0  0  0  0  0  0  0  0  0  0  0  0
   25.3830    6.9550   -6.0060 C   0  0  1  0  0  0  0  0  0  0  0  0
   30.7260   11.9200  -13.1450 C   0  0  1  0  0  0  0  0  0  0  0  0
   27.5765    6.1021  -10.5797 H   0  0  0  0  0  0  0  0  0  0  0  0
   29.3479    6.7961  -12.1345 H   0  0  0  0  0  0  0  0  0  0  0  0
   26.8407   10.2611   -9.7251 H   0  0  0  0  0  0  0  0  0  0  0  0
   28.5046   11.8687  -11.1865 H   0  0  0  0  0  0  0  0  0  0  0  0
   24.1624    9.4573   -5.3417 H   0  0  0  0  0  0  0  0  0  0  0  0
   24.5507   11.3390   -9.4628 H   0  0  0  0  0  0  0  0  0  0  0  0
   23.1959   11.6168   -5.3785 H   0  0  0  0  0  0  0  0  0  0  0  0
   22.3831   13.9327   -5.8051 H   0  0  0  0  0  0  0  0  0  0  0  0
   23.7368   13.6532   -9.8910 H   0  0  0  0  0  0  0  0  0  0  0  0
   25.3285    7.2058   -4.9364 H   0  0  0  0  0  0  0  0  0  0  0  0
   24.6307    6.1878   -6.2415 H   0  0  0  0  0  0  0  0  0  0  0  0
   26.3860    6.5695   -6.2415 H   0  0  0  0  0  0  0  0  0  0  0  0
   31.1838   12.5557  -12.3728 H   0  0  0  0  0  0  0  0  0  0  0  0
   31.5149   11.4786  -13.7717 H   0  0  0  0  0  0  0  0  0  0  0  0
   30.0574   12.5284  -13.7717 H   0  0  0  0  0  0  0  0  0  0  0  0
  5  1  1  0
  5 11  1  0
  1  2  2  0
  1  7  1  0
  2  3  1  0
  3  4  1  0
  4  8  2  0
  4  6  1  0
  6 10  1  0
  6  7  2  0
  8  9  1  0
  9 23  1  0
  9 10  2  0
 11 12  2  0
 11 15  1  0
 12 13  1  0
 13 16  1  0
 13 14  1  0
 14 15  2  0
 15 22  1  0
 16 17  2  0
 16 18  1  0
 17 20  1  0
 18 19  2  0
 19 21  1  0
 20 21  2  0
  2 24  1  0
  3 25  1  0
  7 26  1  0
 10 27  1  0
 14 28  1  0
 17 29  1  0
 18 30  1  0
 19 31  1  0
 20 32  1  0
 22 33  1  1
 22 34  1  0
 22 35  1  0
 23 36  1  1
 23 37  1  0
 23 38  1  0
M  END
>  <Pose ID>  (489)
432

>  <Score>  (489)
-5.4421820640563965

>  <smiles>  (489)
Cc1cc2cc(Oc3nn(-c4ccncc4)cc3C)c[nH]c-2n1

$$$$

     RDKit          3D

 35 38  0  0  0  0  0  0  0  0999 V2000
   27.9410    7.8650  -10.4470 C   0  0  0  0  0  0  0  0  0  0  0  0
   28.7570    7.0870  -11.2560 C   0  0  0  0  0  0  0  0  0  0  0  0
   29.6450    7.6930  -12.1340 N   0  0  0  0  0  0  0  0  0  0  0  0
   29.7240    9.0790  -12.2000 C   0  0  0  0  0  0  0  0  0  0  0  0
   27.0680    7.0790   -9.5770 O   0  0  0  0  0  0  0  0  0  0  0  0
   28.9060    9.8580  -11.3900 C   0  0  0  0  0  0  0  0  0  0  0  0
   28.0170    9.2520  -10.5120 C   0  0  0  0  0  0  0  0  0  0  0  0
   30.4940    9.8860  -12.9560 N   0  0  0  0  0  0  0  0  0  0  0  0
   30.1920   11.1960  -12.6580 C   0  0  0  0  0  0  0  0  0  0  0  0
   29.1910   11.0090  -11.6780 C   0  0  0  0  0  0  0  0  0  0  0  0
   26.3770    7.6020   -8.4780 C   0  0  0  0  0  0  0  0  0  0  0  0
   25.7120    8.8020   -8.6630 N   0  0  0  0  0  0  0  0  0  0  0  0
   25.1270    9.1540   -7.4620 N   0  0  0  0  0  0  0  0  0  0  0  0
   25.4050    8.2010   -6.5600 C   0  0  0  0  0  0  0  0  0  0  0  0
   26.1390    7.2600   -7.1580 C   0  0  0  0  0  0  0  0  0  0  0  0
   24.4520   10.1930   -7.3290 C   0  0  0  0  0  0  0  0  0  0  0  0
   24.4160   10.9500   -8.4930 C   0  0  0  0  0  0  0  0  0  0  0  0
   23.7330   12.1600   -8.5140 N   0  0  0  0  0  0  0  0  0  0  0  0
   23.8040   10.6450   -6.1850 C   0  0  0  0  0  0  0  0  0  0  0  0
   23.1190   11.8560   -6.2070 C   0  0  0  0  0  0  0  0  0  0  0  0
   23.0840   12.6120   -7.3720 C   0  0  0  0  0  0  0  0  0  0  0  0
   28.5060   12.1800  -11.0180 C   0  0  1  0  0  0  0  0  0  0  0  0
   28.7001    5.9898  -11.2015 H   0  0  0  0  0  0  0  0  0  0  0  0
   30.2465    7.1145  -12.7377 H   0  0  0  0  0  0  0  0  0  0  0  0
   27.3731    9.8690   -9.8681 H   0  0  0  0  0  0  0  0  0  0  0  0
   30.6119   12.1266  -13.0676 H   0  0  0  0  0  0  0  0  0  0  0  0
   25.0834    8.1958   -5.5081 H   0  0  0  0  0  0  0  0  0  0  0  0
   26.5029    6.3432   -6.6711 H   0  0  0  0  0  0  0  0  0  0  0  0
   24.9281   10.5917   -9.3982 H   0  0  0  0  0  0  0  0  0  0  0  0
   23.8328   10.0457   -5.2631 H   0  0  0  0  0  0  0  0  0  0  0  0
   22.6056   12.2145   -5.3026 H   0  0  0  0  0  0  0  0  0  0  0  0
   22.5421   13.5691   -7.3901 H   0  0  0  0  0  0  0  0  0  0  0  0
   28.5686   12.0730   -9.9250 H   0  0  0  0  0  0  0  0  0  0  0  0
   29.0002   13.1139  -11.3239 H   0  0  0  0  0  0  0  0  0  0  0  0
   27.4497   12.2069  -11.3239 H   0  0  0  0  0  0  0  0  0  0  0  0
  5  1  1  0
  5 11  1  0
  1  2  2  0
  1  7  1  0
  2  3  1  0
  3  4  1  0
  4  8  2  0
  4  6  1  0
  6 10  1  0
  6  7  2  0
  8  9  1  0
  9 10  2  0
 10 22  1  0
 11 12  2  0
 11 15  1  0
 12 13  1  0
 13 16  1  0
 13 14  1  0
 14 15  2  0
 16 17  2  0
 16 19  1  0
 17 18  1  0
 18 21  2  0
 19 20  2  0
 20 21  1  0
  2 23  1  0
  3 24  1  0
  7 25  1  0
  9 26  1  0
 14 27  1  0
 15 28  1  0
 17 29  1  0
 19 30  1  0
 20 31  1  0
 21 32  1  0
 22 33  1  1
 22 34  1  0
 22 35  1  0
M  END
>  <Pose ID>  (490)
437

>  <Score>  (490)
-5.434964656829834

>  <smiles>  (490)
Cc1cnc2[nH]cc(Oc3ccn(-c4cccnc4)n3)cc1-2

$$$$

     RDKit          3D

 36 39  0  0  0  0  0  0  0  0999 V2000
   27.6800    7.8010  -10.2190 C   0  0  0  0  0  0  0  0  0  0  0  0
   28.4810    7.0860  -11.1010 C   0  0  0  0  0  0  0  0  0  0  0  0
   29.3010    7.7610  -11.9980 N   0  0  0  0  0  0  0  0  0  0  0  0
   29.3220    9.1500  -12.0090 C   0  0  0  0  0  0  0  0  0  0  0  0
   26.8870    6.9470   -9.3390 O   0  0  0  0  0  0  0  0  0  0  0  0
   28.5210    9.8670  -11.1260 C   0  0  0  0  0  0  0  0  0  0  0  0
   27.7030    9.1900  -10.2290 C   0  0  0  0  0  0  0  0  0  0  0  0
   30.0200   10.0180  -12.7710 N   0  0  0  0  0  0  0  0  0  0  0  0
   29.6840   11.3000  -12.4020 C   0  0  0  0  0  0  0  0  0  0  0  0
   28.7450   11.0370  -11.3820 C   0  0  0  0  0  0  0  0  0  0  0  0
   26.2370    7.3970   -8.1850 C   0  0  0  0  0  0  0  0  0  0  0  0
   25.5170    8.5760   -8.2850 N   0  0  0  0  0  0  0  0  0  0  0  0
   24.9850    8.8580   -7.0400 N   0  0  0  0  0  0  0  0  0  0  0  0
   25.3450    7.8820   -6.1950 C   0  0  0  0  0  0  0  0  0  0  0  0
   26.0810    6.9930   -6.8690 C   0  0  0  0  0  0  0  0  0  0  0  0
   24.2270    9.9440   -6.7550 C   0  0  0  0  0  0  0  0  0  0  0  0
   24.7520   11.1970   -7.0490 C   0  0  0  0  0  0  0  0  0  0  0  0
   23.1210    9.8330   -5.9190 C   0  0  0  0  0  0  0  0  0  0  0  0
   22.5420   10.9740   -5.3790 C   0  0  0  0  0  0  0  0  0  0  0  0
   23.0670   12.2270   -5.6730 C   0  0  0  0  0  0  0  0  0  0  0  0
   24.1660   12.3360   -6.5040 N   0  0  0  0  0  0  0  0  0  0  0  0
   22.5490   13.2500   -5.1880 O   0  0  0  0  0  0  0  0  0  0  0  0
   28.0500   12.1540  -10.6420 C   0  0  1  0  0  0  0  0  0  0  0  0
   28.4663    5.9862  -11.0895 H   0  0  0  0  0  0  0  0  0  0  0  0
   29.8927    7.2315  -12.6541 H   0  0  0  0  0  0  0  0  0  0  0  0
   27.0730    9.7548   -9.5261 H   0  0  0  0  0  0  0  0  0  0  0  0
   30.0464   12.2621  -12.7931 H   0  0  0  0  0  0  0  0  0  0  0  0
   25.0800    7.8227   -5.1290 H   0  0  0  0  0  0  0  0  0  0  0  0
   26.5027    6.0720   -6.4401 H   0  0  0  0  0  0  0  0  0  0  0  0
   25.6269   11.2882   -7.7095 H   0  0  0  0  0  0  0  0  0  0  0  0
   22.7050    8.8418   -5.6856 H   0  0  0  0  0  0  0  0  0  0  0  0
   21.6671   10.8861   -4.7180 H   0  0  0  0  0  0  0  0  0  0  0  0
   24.5536   13.2652   -6.7213 H   0  0  0  0  0  0  0  0  0  0  0  0
   28.1498   11.9936   -9.5583 H   0  0  0  0  0  0  0  0  0  0  0  0
   28.5094   13.1157  -10.9142 H   0  0  0  0  0  0  0  0  0  0  0  0
   26.9843   12.1667  -10.9142 H   0  0  0  0  0  0  0  0  0  0  0  0
 11  5  1  0
 11 12  2  0
 11 15  1  0
 12 13  1  0
 13 16  1  0
 13 14  1  0
 14 15  2  0
 16 17  2  0
 16 18  1  0
 17 21  1  0
 18 19  2  0
 19 20  1  0
 20 21  1  0
 20 22  2  0
  5  1  1  0
  1  2  2  0
  1  7  1  0
  2  3  1  0
  3  4  1  0
  4  8  2  0
  4  6  1  0
  6 10  1  0
  6  7  2  0
  8  9  1  0
  9 10  2  0
 10 23  1  0
  2 24  1  0
  3 25  1  0
  7 26  1  0
  9 27  1  0
 14 28  1  0
 15 29  1  0
 17 30  1  0
 18 31  1  0
 19 32  1  0
 21 33  1  0
 23 34  1  1
 23 35  1  0
 23 36  1  0
M  END
>  <Pose ID>  (491)
466

>  <Score>  (491)
-5.434420585632324

>  <smiles>  (491)
Cc1cnc2[nH]cc(Oc3ccn(-c4ccc(=O)[nH]c4)n3)cc1-2

$$$$

     RDKit          3D

 35 38  0  0  0  0  0  0  0  0999 V2000
   27.8600    7.8430  -10.2520 C   0  0  0  0  0  0  0  0  0  0  0  0
   28.8220    7.1240  -10.9500 C   0  0  0  0  0  0  0  0  0  0  0  0
   29.6590    7.7770  -11.8490 N   0  0  0  0  0  0  0  0  0  0  0  0
   29.5340    9.1470  -12.0460 C   0  0  0  0  0  0  0  0  0  0  0  0
   27.0680    7.0150   -9.3460 O   0  0  0  0  0  0  0  0  0  0  0  0
   28.5710    9.8650  -11.3470 C   0  0  0  0  0  0  0  0  0  0  0  0
   27.7350    9.2120  -10.4480 C   0  0  0  0  0  0  0  0  0  0  0  0
   30.2170    9.9890  -12.8480 N   0  0  0  0  0  0  0  0  0  0  0  0
   29.7090   11.2590  -12.6890 C   0  0  0  0  0  0  0  0  0  0  0  0
   28.6970   11.0130  -11.7350 C   0  0  0  0  0  0  0  0  0  0  0  0
   26.2510    7.5240   -8.3290 C   0  0  0  0  0  0  0  0  0  0  0  0
   25.4260    8.5880   -8.6550 N   0  0  0  0  0  0  0  0  0  0  0  0
   24.7740    8.9310   -7.5750 N   0  0  0  0  0  0  0  0  0  0  0  0
   25.0720    8.1640   -6.4560 C   0  0  0  0  0  0  0  0  0  0  0  0
   25.9960    7.2690   -6.9930 C   0  0  0  0  0  0  0  0  0  0  0  0
   23.8400    9.9570   -7.4850 C   0  0  0  0  0  0  0  0  0  0  0  0
   23.2050   10.2150   -6.2770 C   0  0  0  0  0  0  0  0  0  0  0  0
   23.5030    9.4480   -5.1570 C   0  0  0  0  0  0  0  0  0  0  0  0
   24.4370    8.4210   -5.2480 C   0  0  0  0  0  0  0  0  0  0  0  0
   22.8140    9.7290   -3.8440 C   0  0  1  0  0  0  0  0  0  0  0  0
   21.9310   10.9860   -3.8960 C   0  0  1  0  0  0  0  0  0  0  0  0
   28.9218    6.0400  -10.7921 H   0  0  0  0  0  0  0  0  0  0  0  0
   30.3715    7.2450  -12.3688 H   0  0  0  0  0  0  0  0  0  0  0  0
   26.9745    9.7800   -9.8920 H   0  0  0  0  0  0  0  0  0  0  0  0
   30.0079   12.2018  -13.1705 H   0  0  0  0  0  0  0  0  0  0  0  0
   28.0520   11.8210  -11.3594 H   0  0  0  0  0  0  0  0  0  0  0  0
   26.4671    6.4555   -6.4218 H   0  0  0  0  0  0  0  0  0  0  0  0
   23.6039   10.5647   -8.3710 H   0  0  0  0  0  0  0  0  0  0  0  0
   22.4659   11.0267   -6.2067 H   0  0  0  0  0  0  0  0  0  0  0  0
   24.6727    7.8122   -4.3626 H   0  0  0  0  0  0  0  0  0  0  0  0
   22.1830    8.8658   -3.5856 H   0  0  0  0  0  0  0  0  0  0  0  0
   23.5948    9.9018   -3.0887 H   0  0  0  0  0  0  0  0  0  0  0  0
   21.7002   11.3146   -2.8719 H   0  0  0  0  0  0  0  0  0  0  0  0
   22.4654   11.7878   -4.4267 H   0  0  0  0  0  0  0  0  0  0  0  0
   20.9955   10.7552   -4.4267 H   0  0  0  0  0  0  0  0  0  0  0  0
  5  1  1  0
  5 11  1  0
  1  2  2  0
  1  7  1  0
  2  3  1  0
  3  4  1  0
  4  8  2  0
  4  6  1  0
  6 10  1  0
  6  7  2  0
  8  9  1  0
  9 10  2  0
 11 12  2  0
 11 15  1  0
 12 13  1  0
 13 16  1  0
 13 14  1  0
 14 15  2  0
 14 19  1  0
 16 17  2  0
 17 18  1  0
 18 19  2  0
 18 20  1  0
 20 21  1  0
  2 22  1  0
  3 23  1  0
  7 24  1  0
  9 25  1  0
 10 26  1  0
 15 27  1  0
 16 28  1  0
 17 29  1  0
 19 30  1  0
 20 31  1  1
 20 32  1  0
 21 33  1  1
 21 34  1  0
 21 35  1  0
M  END
>  <Pose ID>  (492)
339

>  <Score>  (492)
-5.434089660644531

>  <smiles>  (492)
CCc1ccn2nc(Oc3c[nH]c4nccc-4c3)cc2c1

$$$$

     RDKit          3D

 32 35  0  0  0  0  0  0  0  0999 V2000
   27.3190    7.8700  -10.1920 C   0  0  0  0  0  0  0  0  0  0  0  0
   28.4450    7.1350  -10.5270 C   0  0  0  0  0  0  0  0  0  0  0  0
   29.4330    7.7010  -11.3210 N   0  0  0  0  0  0  0  0  0  0  0  0
   26.5160    7.1240   -9.4170 N   0  0  0  0  0  0  0  0  0  0  0  0
   29.2960    9.0070  -11.7790 C   0  0  0  0  0  0  0  0  0  0  0  0
   28.1670    9.7430  -11.4410 C   0  0  0  0  0  0  0  0  0  0  0  0
   27.1780    9.1790  -10.6490 C   0  0  0  0  0  0  0  0  0  0  0  0
   30.1040    9.7610  -12.5430 N   0  0  0  0  0  0  0  0  0  0  0  0
   29.5620   10.9350  -12.7170 C   0  0  0  0  0  0  0  0  0  0  0  0
   28.3550   10.8640  -12.0340 C   0  0  0  0  0  0  0  0  0  0  0  0
   25.9040    7.6130   -8.2240 C   0  0  0  0  0  0  0  0  0  0  0  0
   25.2630    6.7050   -7.3880 N   0  0  0  0  0  0  0  0  0  0  0  0
   24.5540    7.1580   -6.2830 C   0  0  0  0  0  0  0  0  0  0  0  0
   24.4860    8.5210   -6.0120 C   0  0  0  0  0  0  0  0  0  0  0  0
   25.1240    9.4300   -6.8490 C   0  0  0  0  0  0  0  0  0  0  0  0
   25.8580    8.9710   -7.9390 C   0  0  0  0  0  0  0  0  0  0  0  0
   23.9830    6.3440   -5.5350 O   0  0  0  0  0  0  0  0  0  0  0  0
   29.9130   12.0990  -13.3910 C   0  0  0  0  0  0  0  0  0  0  0  0
   29.0550   13.1920  -13.3800 C   0  0  0  0  0  0  0  0  0  0  0  0
   27.8470   13.1220  -12.6970 C   0  0  0  0  0  0  0  0  0  0  0  0
   27.4970   11.9580  -12.0240 N   0  0  0  0  0  0  0  0  0  0  0  0
   28.5559    6.1027  -10.1636 H   0  0  0  0  0  0  0  0  0  0  0  0
   30.2685    7.1531  -11.5712 H   0  0  0  0  0  0  0  0  0  0  0  0
   26.3324    6.1500   -9.6973 H   0  0  0  0  0  0  0  0  0  0  0  0
   26.2849    9.7632  -10.3823 H   0  0  0  0  0  0  0  0  0  0  0  0
   25.3141    5.6960   -7.5885 H   0  0  0  0  0  0  0  0  0  0  0  0
   23.9272    8.8798   -5.1351 H   0  0  0  0  0  0  0  0  0  0  0  0
   25.0488   10.5093   -6.6501 H   0  0  0  0  0  0  0  0  0  0  0  0
   26.4020    9.6848   -8.5751 H   0  0  0  0  0  0  0  0  0  0  0  0
   30.8689   12.1548  -13.9324 H   0  0  0  0  0  0  0  0  0  0  0  0
   29.3324   14.1136  -13.9126 H   0  0  0  0  0  0  0  0  0  0  0  0
   27.1682   13.9876  -12.6891 H   0  0  0  0  0  0  0  0  0  0  0  0
  1  7  1  0
  1  2  2  0
  1  4  1  0
  2  3  1  0
  3  5  1  0
  5  8  2  0
  5  6  1  0
  6 10  1  0
  6  7  2  0
  8  9  1  0
  9 18  1  0
  9 10  2  0
 10 21  1  0
 18 19  2  0
 19 20  1  0
 20 21  2  0
  4 11  1  0
 11 16  2  0
 11 12  1  0
 12 13  1  0
 13 14  1  0
 13 17  2  0
 14 15  2  0
 15 16  1  0
  2 22  1  0
  3 23  1  0
  4 24  1  0
  7 25  1  0
 12 26  1  0
 14 27  1  0
 15 28  1  0
 16 29  1  0
 18 30  1  0
 19 31  1  0
 20 32  1  0
M  END
>  <Pose ID>  (493)
95

>  <Score>  (493)
-5.432751178741455

>  <smiles>  (493)
O=c1cccc(Nc2c[nH]c3nc4cccnc4c-3c2)[nH]1

$$$$

     RDKit          3D

 31 34  0  0  0  0  0  0  0  0999 V2000
   27.9250    7.8380  -10.3230 C   0  0  0  0  0  0  0  0  0  0  0  0
   28.9090    7.1230  -10.9960 C   0  0  0  0  0  0  0  0  0  0  0  0
   29.7670    7.7780  -11.8700 N   0  0  0  0  0  0  0  0  0  0  0  0
   29.6450    9.1480  -12.0720 C   0  0  0  0  0  0  0  0  0  0  0  0
   27.1130    7.0080   -9.4380 O   0  0  0  0  0  0  0  0  0  0  0  0
   28.6590    9.8640  -11.3990 C   0  0  0  0  0  0  0  0  0  0  0  0
   27.8020    9.2070  -10.5240 C   0  0  0  0  0  0  0  0  0  0  0  0
   30.3440    9.9920  -12.8550 N   0  0  0  0  0  0  0  0  0  0  0  0
   29.8290   11.2600  -12.7110 C   0  0  0  0  0  0  0  0  0  0  0  0
   28.7920   11.0110  -11.7850 C   0  0  0  0  0  0  0  0  0  0  0  0
   26.2670    7.5150   -8.4440 C   0  0  0  0  0  0  0  0  0  0  0  0
   25.4490    8.5760   -8.7920 N   0  0  0  0  0  0  0  0  0  0  0  0
   24.7550    8.9190   -7.6990 N   0  0  0  0  0  0  0  0  0  0  0  0
   25.0630    8.1000   -6.6210 C   0  0  0  0  0  0  0  0  0  0  0  0
   25.9780    7.2600   -7.1160 C   0  0  0  0  0  0  0  0  0  0  0  0
   23.8100    9.9290   -7.5570 C   0  0  0  0  0  0  0  0  0  0  0  0
   23.1750   10.1190   -6.3360 N   0  0  0  0  0  0  0  0  0  0  0  0
   23.4830    9.2990   -5.2560 C   0  0  0  0  0  0  0  0  0  0  0  0
   24.4280    8.2900   -5.3990 C   0  0  0  0  0  0  0  0  0  0  0  0
   30.2530   12.5540  -13.3600 C   0  0  1  0  0  0  0  0  0  0  0  0
   29.0081    6.0391  -10.8364 H   0  0  0  0  0  0  0  0  0  0  0  0
   30.4951    7.2476  -12.3695 H   0  0  0  0  0  0  0  0  0  0  0  0
   27.0245    9.7724   -9.9894 H   0  0  0  0  0  0  0  0  0  0  0  0
   28.1340   11.8172  -11.4285 H   0  0  0  0  0  0  0  0  0  0  0  0
   26.4486    6.4555   -6.5317 H   0  0  0  0  0  0  0  0  0  0  0  0
   23.5652   10.5774   -8.4112 H   0  0  0  0  0  0  0  0  0  0  0  0
   22.9793    9.4488   -4.2896 H   0  0  0  0  0  0  0  0  0  0  0  0
   24.6736    7.6416   -4.5450 H   0  0  0  0  0  0  0  0  0  0  0  0
   30.4950   13.2926  -12.5816 H   0  0  0  0  0  0  0  0  0  0  0  0
   31.1401   12.3769  -13.9859 H   0  0  0  0  0  0  0  0  0  0  0  0
   29.4331   12.9362  -13.9859 H   0  0  0  0  0  0  0  0  0  0  0  0
  1  2  2  0
  1  7  1  0
  1  5  1  0
  2  3  1  0
  3  4  1  0
  4  8  2  0
  4  6  1  0
  6 10  1  0
  6  7  2  0
  8  9  1  0
  9 20  1  0
  9 10  2  0
  5 11  1  0
 11 12  2  0
 11 15  1  0
 12 13  1  0
 13 16  1  0
 13 14  1  0
 14 15  2  0
 14 19  1  0
 16 17  2  0
 17 18  1  0
 18 19  2  0
  2 21  1  0
  3 22  1  0
  7 23  1  0
 10 24  1  0
 15 25  1  0
 16 26  1  0
 18 27  1  0
 19 28  1  0
 20 29  1  1
 20 30  1  0
 20 31  1  0
M  END
>  <Pose ID>  (494)
271

>  <Score>  (494)
-5.430750370025635

>  <smiles>  (494)
Cc1cc2cc(Oc3cc4ccncn4n3)c[nH]c-2n1

$$$$

     RDKit          3D

 37 40  0  0  0  0  0  0  0  0999 V2000
   27.7650    7.7370  -10.2270 C   0  0  0  0  0  0  0  0  0  0  0  0
   28.6250    7.0610  -11.0820 C   0  0  0  0  0  0  0  0  0  0  0  0
   29.4090    7.7720  -11.9820 N   0  0  0  0  0  0  0  0  0  0  0  0
   29.3330    9.1590  -12.0280 C   0  0  0  0  0  0  0  0  0  0  0  0
   27.0170    6.8510   -9.3400 O   0  0  0  0  0  0  0  0  0  0  0  0
   28.4700    9.8350  -11.1710 C   0  0  0  0  0  0  0  0  0  0  0  0
   27.6880    9.1240  -10.2710 C   0  0  0  0  0  0  0  0  0  0  0  0
   29.9820   10.0540  -12.8000 N   0  0  0  0  0  0  0  0  0  0  0  0
   29.5520   11.3190  -12.4660 C   0  0  0  0  0  0  0  0  0  0  0  0
   28.6170   11.0110  -11.4530 C   0  0  0  0  0  0  0  0  0  0  0  0
   26.3180    7.2800   -8.2040 C   0  0  0  0  0  0  0  0  0  0  0  0
   25.5200    8.4040   -8.3440 N   0  0  0  0  0  0  0  0  0  0  0  0
   24.9810    8.6540   -7.1730 N   0  0  0  0  0  0  0  0  0  0  0  0
   25.3300    7.7630   -6.1670 C   0  0  0  0  0  0  0  0  0  0  0  0
   26.1700    6.8960   -6.8840 C   0  0  0  0  0  0  0  0  0  0  0  0
   24.1120    9.7040   -6.9000 C   0  0  0  0  0  0  0  0  0  0  0  0
   23.5920    9.8630   -5.6220 C   0  0  0  0  0  0  0  0  0  0  0  0
   23.9420    8.9700   -4.6150 C   0  0  0  0  0  0  0  0  0  0  0  0
   24.8100    7.9200   -4.8870 N   0  0  0  0  0  0  0  0  0  0  0  0
   29.9620   12.6570  -13.0260 C   0  0  1  0  0  0  0  0  0  0  0  0
   28.7650   13.0990  -13.8430 C   0  0  1  0  0  0  0  0  0  0  0  0
   22.6490   11.0030   -5.3260 C   0  0  1  0  0  0  0  0  0  0  0  0
   28.6856    5.9632  -11.0468 H   0  0  0  0  0  0  0  0  0  0  0  0
   30.0474    7.2706  -12.6160 H   0  0  0  0  0  0  0  0  0  0  0  0
   27.0071    9.6586   -9.5924 H   0  0  0  0  0  0  0  0  0  0  0  0
   28.0460   11.7993  -10.9407 H   0  0  0  0  0  0  0  0  0  0  0  0
   26.6553    6.0116   -6.4454 H   0  0  0  0  0  0  0  0  0  0  0  0
   23.8358   10.4099   -7.6972 H   0  0  0  0  0  0  0  0  0  0  0  0
   23.5312    9.0952   -3.6023 H   0  0  0  0  0  0  0  0  0  0  0  0
   30.1677   13.3726  -12.2163 H   0  0  0  0  0  0  0  0  0  0  0  0
   30.8832   12.5995  -13.6244 H   0  0  0  0  0  0  0  0  0  0  0  0
   27.9507   13.3997  -13.1673 H   0  0  0  0  0  0  0  0  0  0  0  0
   29.0487   13.9516  -14.4774 H   0  0  0  0  0  0  0  0  0  0  0  0
   28.4265   12.2666  -14.4774 H   0  0  0  0  0  0  0  0  0  0  0  0
   22.5495   11.1233   -4.2371 H   0  0  0  0  0  0  0  0  0  0  0  0
   23.0470   11.9309   -5.7625 H   0  0  0  0  0  0  0  0  0  0  0  0
   21.6629   10.7860   -5.7625 H   0  0  0  0  0  0  0  0  0  0  0  0
  1  2  2  0
  1  7  1  0
  1  5  1  0
  2  3  1  0
  3  4  1  0
  4  8  2  0
  4  6  1  0
  6 10  1  0
  6  7  2  0
  8  9  1  0
  9 20  1  0
  9 10  2  0
 20 21  1  0
  5 11  1  0
 11 12  2  0
 11 15  1  0
 12 13  1  0
 13 16  1  0
 13 14  1  0
 14 15  2  0
 14 19  1  0
 16 17  2  0
 17 22  1  0
 17 18  1  0
 18 19  2  0
  2 23  1  0
  3 24  1  0
  7 25  1  0
 10 26  1  0
 15 27  1  0
 16 28  1  0
 18 29  1  0
 20 30  1  1
 20 31  1  0
 21 32  1  1
 21 33  1  0
 21 34  1  0
 22 35  1  1
 22 36  1  0
 22 37  1  0
M  END
>  <Pose ID>  (495)
366

>  <Score>  (495)
-5.427305698394775

>  <smiles>  (495)
CCc1cc2cc(Oc3cc4ncc(C)cn4n3)c[nH]c-2n1

$$$$

     RDKit          3D

 36 39  0  0  0  0  0  0  0  0999 V2000
   27.3160    8.0410  -10.2570 C   0  0  0  0  0  0  0  0  0  0  0  0
   28.2950    7.2090  -10.7790 C   0  0  0  0  0  0  0  0  0  0  0  0
   29.2900    7.7330  -11.5940 N   0  0  0  0  0  0  0  0  0  0  0  0
   26.4770    7.3160   -9.4990 N   0  0  0  0  0  0  0  0  0  0  0  0
   29.3070    9.0920  -11.8840 C   0  0  0  0  0  0  0  0  0  0  0  0
   28.3270    9.9250  -11.3590 C   0  0  0  0  0  0  0  0  0  0  0  0
   27.3320    9.4030  -10.5460 C   0  0  0  0  0  0  0  0  0  0  0  0
   30.1550    9.8220  -12.6310 N   0  0  0  0  0  0  0  0  0  0  0  0
   29.7420   11.1350  -12.6110 C   0  0  0  0  0  0  0  0  0  0  0  0
   28.5980   11.0320  -11.7900 C   0  0  0  0  0  0  0  0  0  0  0  0
   26.0370    7.7290   -8.2060 C   0  0  0  0  0  0  0  0  0  0  0  0
   25.3410    6.8170   -7.4240 N   0  0  0  0  0  0  0  0  0  0  0  0
   24.7930    7.2170   -6.2100 C   0  0  0  0  0  0  0  0  0  0  0  0
   24.9430    8.5300   -5.7810 C   0  0  0  0  0  0  0  0  0  0  0  0
   25.6400    9.4440   -6.5640 C   0  0  0  0  0  0  0  0  0  0  0  0
   26.2110    9.0320   -7.7630 C   0  0  0  0  0  0  0  0  0  0  0  0
   24.1700    6.4000   -5.5090 O   0  0  0  0  0  0  0  0  0  0  0  0
   25.9040   10.8120   -6.3710 C   0  0  0  0  0  0  0  0  0  0  0  0
   26.6040   11.5750   -7.1880 N   0  0  0  0  0  0  0  0  0  0  0  0
   26.6760   12.9190   -6.7190 C   0  0  0  0  0  0  0  0  0  0  0  0
   25.5630   11.7910   -5.3170 C   0  0  0  0  0  0  0  0  0  0  0  0
   25.9700   12.9770   -5.5400 O   0  0  0  0  0  0  0  0  0  0  0  0
   27.3930   14.0640   -7.3900 C   0  0  1  0  0  0  0  0  0  0  0  0
   28.2835    6.1337  -10.5475 H   0  0  0  0  0  0  0  0  0  0  0  0
   30.0155    7.1143  -11.9836 H   0  0  0  0  0  0  0  0  0  0  0  0
   26.1345    6.4179   -9.8692 H   0  0  0  0  0  0  0  0  0  0  0  0
   26.5570   10.0637  -10.1303 H   0  0  0  0  0  0  0  0  0  0  0  0
   30.1808   12.0180  -13.0986 H   0  0  0  0  0  0  0  0  0  0  0  0
   27.9802   11.9101  -11.5506 H   0  0  0  0  0  0  0  0  0  0  0  0
   25.2305    5.8439   -7.7431 H   0  0  0  0  0  0  0  0  0  0  0  0
   24.5099    8.8470   -4.8208 H   0  0  0  0  0  0  0  0  0  0  0  0
   26.8020    9.7408   -8.3616 H   0  0  0  0  0  0  0  0  0  0  0  0
   25.0019   11.5167   -4.4115 H   0  0  0  0  0  0  0  0  0  0  0  0
   27.8121   14.7333   -6.6243 H   0  0  0  0  0  0  0  0  0  0  0  0
   28.2061   13.6702   -8.0175 H   0  0  0  0  0  0  0  0  0  0  0  0
   26.6837   14.6235   -8.0175 H   0  0  0  0  0  0  0  0  0  0  0  0
 11  4  1  0
 11 16  2  0
 11 12  1  0
 12 13  1  0
 13 14  1  0
 13 17  2  0
 14 15  2  0
 15 16  1  0
 15 18  1  0
 18 19  1  0
 18 21  2  0
 19 20  2  0
 20 23  1  0
 20 22  1  0
 21 22  1  0
  4  1  1  0
  1  2  2  0
  1  7  1  0
  2  3  1  0
  3  5  1  0
  5  8  2  0
  5  6  1  0
  6 10  1  0
  6  7  2  0
  8  9  1  0
  9 10  2  0
  2 24  1  0
  3 25  1  0
  4 26  1  0
  7 27  1  0
  9 28  1  0
 10 29  1  0
 12 30  1  0
 14 31  1  0
 16 32  1  0
 21 33  1  0
 23 34  1  1
 23 35  1  0
 23 36  1  0
M  END
>  <Pose ID>  (496)
124

>  <Score>  (496)
-5.427073001861572

>  <smiles>  (496)
Cc1nc(-c2cc(Nc3c[nH]c4nccc-4c3)[nH]c(=O)c2)co1

$$$$

     RDKit          3D

 24 26  0  0  0  0  0  0  0  0999 V2000
   27.4830    7.7300   -9.7760 C   0  0  0  0  0  0  0  0  0  0  0  0
   26.7360    6.7960   -9.0700 N   0  0  0  0  0  0  0  0  0  0  0  0
   25.9980    7.1910   -7.9620 C   0  0  0  0  0  0  0  0  0  0  0  0
   25.3220    6.1990   -7.3050 C   0  0  0  0  0  0  0  0  0  0  0  0
   24.5430    6.4870   -6.1920 N   0  0  0  0  0  0  0  0  0  0  0  0
   24.4510    7.7910   -5.7260 C   0  0  0  0  0  0  0  0  0  0  0  0
   25.1400    8.8120   -6.3720 C   0  0  0  0  0  0  0  0  0  0  0  0
   26.0070    8.5210   -7.5590 C   0  0  0  0  0  0  0  0  0  0  0  0
   27.4940    9.0610   -9.3730 C   0  0  0  0  0  0  0  0  0  0  0  0
   26.7550    9.4560   -8.2650 C   0  0  0  0  0  0  0  0  0  0  0  0
   28.2810    7.5890  -10.8860 N   0  0  0  0  0  0  0  0  0  0  0  0
   28.9930    8.4310  -11.5260 C   0  0  0  0  0  0  0  0  0  0  0  0
   30.3900    8.4220  -11.6700 N   0  0  0  0  0  0  0  0  0  0  0  0
   30.6930    9.5010  -12.4000 O   0  0  0  0  0  0  0  0  0  0  0  0
   29.6410   10.1640  -12.7280 C   0  0  0  0  0  0  0  0  0  0  0  0
   28.5280    9.4950  -12.2200 C   0  0  0  0  0  0  0  0  0  0  0  0
   25.3965    5.1614   -7.6626 H   0  0  0  0  0  0  0  0  0  0  0  0
   23.8326    8.0173   -4.8449 H   0  0  0  0  0  0  0  0  0  0  0  0
   25.0473    9.8456   -6.0071 H   0  0  0  0  0  0  0  0  0  0  0  0
   28.0873    9.8003   -9.9311 H   0  0  0  0  0  0  0  0  0  0  0  0
   26.7618   10.5088   -7.9463 H   0  0  0  0  0  0  0  0  0  0  0  0
   28.3088    6.6332  -11.2689 H   0  0  0  0  0  0  0  0  0  0  0  0
   29.6224   11.0978  -13.3091 H   0  0  0  0  0  0  0  0  0  0  0  0
   27.4740    9.7782  -12.3573 H   0  0  0  0  0  0  0  0  0  0  0  0
  1 11  1  0
  1  9  1  0
  1  2  2  0
  2  3  1  0
  3  8  2  0
  3  4  1  0
  4  5  2  0
  5  6  1  0
  6  7  2  0
  7  8  1  0
  8 10  1  0
  9 10  2  0
 11 12  1  0
 12 16  1  0
 12 13  2  0
 13 14  1  0
 14 15  1  0
 15 16  2  0
  4 17  1  0
  6 18  1  0
  7 19  1  0
  9 20  1  0
 10 21  1  0
 11 22  1  0
 15 23  1  0
 16 24  1  0
M  END
>  <Pose ID>  (497)
21

>  <Score>  (497)
-5.426314830780029

>  <smiles>  (497)
c1cc2ccc(Nc3ccon3)nc2cn1

$$$$

     RDKit          3D

 33 36  0  0  0  0  0  0  0  0999 V2000
   27.3570    7.9680  -10.1710 C   0  0  0  0  0  0  0  0  0  0  0  0
   28.4490    7.1900  -10.5210 C   0  0  0  0  0  0  0  0  0  0  0  0
   29.4340    7.7080  -11.3520 N   0  0  0  0  0  0  0  0  0  0  0  0
   26.5530    7.2620   -9.3600 N   0  0  0  0  0  0  0  0  0  0  0  0
   29.3260    9.0070  -11.8320 C   0  0  0  0  0  0  0  0  0  0  0  0
   28.2310    9.7870  -11.4810 C   0  0  0  0  0  0  0  0  0  0  0  0
   27.2470    9.2710  -10.6510 C   0  0  0  0  0  0  0  0  0  0  0  0
   30.1370    9.7180  -12.6360 N   0  0  0  0  0  0  0  0  0  0  0  0
   29.5890   10.9660  -12.8220 C   0  0  0  0  0  0  0  0  0  0  0  0
   28.4110   10.8470  -12.0550 C   0  0  0  0  0  0  0  0  0  0  0  0
   25.9890    7.7980   -8.1620 C   0  0  0  0  0  0  0  0  0  0  0  0
   25.3440    6.9280   -7.2910 N   0  0  0  0  0  0  0  0  0  0  0  0
   24.6800    7.4260   -6.1760 C   0  0  0  0  0  0  0  0  0  0  0  0
   24.6610    8.7940   -5.9330 C   0  0  0  0  0  0  0  0  0  0  0  0
   25.3060    9.6650   -6.8040 C   0  0  0  0  0  0  0  0  0  0  0  0
   25.9960    9.1600   -7.9030 C   0  0  0  0  0  0  0  0  0  0  0  0
   23.9680    6.7710   -5.1660 C   0  0  0  0  0  0  0  0  0  0  0  0
   23.6510    7.7450   -4.2460 N   0  0  0  0  0  0  0  0  0  0  0  0
   24.0520    8.9290   -4.5760 C   0  0  0  0  0  0  0  0  0  0  0  0
   23.9300   10.1900   -3.7580 C   0  0  1  0  0  0  0  0  0  0  0  0
   28.5358    6.1616  -10.1405 H   0  0  0  0  0  0  0  0  0  0  0  0
   30.2449    7.1287  -11.6124 H   0  0  0  0  0  0  0  0  0  0  0  0
   26.3325    6.2883   -9.6135 H   0  0  0  0  0  0  0  0  0  0  0  0
   26.3812    9.8896  -10.3722 H   0  0  0  0  0  0  0  0  0  0  0  0
   29.9647   11.8191  -13.4061 H   0  0  0  0  0  0  0  0  0  0  0  0
   27.6883   11.6727  -11.9785 H   0  0  0  0  0  0  0  0  0  0  0  0
   25.3580    5.9141   -7.4717 H   0  0  0  0  0  0  0  0  0  0  0  0
   25.2713   10.7498   -6.6254 H   0  0  0  0  0  0  0  0  0  0  0  0
   26.5473    9.8425   -8.5665 H   0  0  0  0  0  0  0  0  0  0  0  0
   23.7144    5.7018   -5.1170 H   0  0  0  0  0  0  0  0  0  0  0  0
   23.9545    9.9367   -2.6879 H   0  0  0  0  0  0  0  0  0  0  0  0
   24.7672   10.8631   -3.9947 H   0  0  0  0  0  0  0  0  0  0  0  0
   22.9793   10.6901   -3.9947 H   0  0  0  0  0  0  0  0  0  0  0  0
  4  1  1  0
  4 11  1  0
 11 16  2  0
 11 12  1  0
 12 13  1  0
 13 14  1  0
 13 17  2  0
 14 15  2  0
 14 19  1  0
 15 16  1  0
 17 18  1  0
 18 19  2  0
 19 20  1  0
  1  7  1  0
  1  2  2  0
  2  3  1  0
  3  5  1  0
  5  8  2  0
  5  6  1  0
  6 10  1  0
  6  7  2  0
  8  9  1  0
  9 10  2  0
  2 21  1  0
  3 22  1  0
  4 23  1  0
  7 24  1  0
  9 25  1  0
 10 26  1  0
 12 27  1  0
 15 28  1  0
 16 29  1  0
 17 30  1  0
 20 31  1  1
 20 32  1  0
 20 33  1  0
M  END
>  <Pose ID>  (498)
37

>  <Score>  (498)
-5.424899578094482

>  <smiles>  (498)
Cc1ncc2[nH]c(Nc3c[nH]c4nccc-4c3)ccc1-2

$$$$

     RDKit          3D

 35 38  0  0  0  0  0  0  0  0999 V2000
   27.9260    7.8640  -10.4350 C   0  0  0  0  0  0  0  0  0  0  0  0
   28.7250    7.0760  -11.2530 C   0  0  0  0  0  0  0  0  0  0  0  0
   29.6190    7.6740  -12.1340 N   0  0  0  0  0  0  0  0  0  0  0  0
   29.7160    9.0590  -12.1940 C   0  0  0  0  0  0  0  0  0  0  0  0
   27.0490    7.0870   -9.5640 O   0  0  0  0  0  0  0  0  0  0  0  0
   28.9140    9.8470  -11.3750 C   0  0  0  0  0  0  0  0  0  0  0  0
   28.0210    9.2490  -10.4950 C   0  0  0  0  0  0  0  0  0  0  0  0
   30.4920    9.8590  -12.9520 N   0  0  0  0  0  0  0  0  0  0  0  0
   30.2080   11.1700  -12.6460 C   0  0  0  0  0  0  0  0  0  0  0  0
   29.2110   10.9930  -11.6620 C   0  0  0  0  0  0  0  0  0  0  0  0
   26.3710    7.6140   -8.4590 C   0  0  0  0  0  0  0  0  0  0  0  0
   25.7210    8.8250   -8.6350 N   0  0  0  0  0  0  0  0  0  0  0  0
   25.1480    9.1800   -7.4280 N   0  0  0  0  0  0  0  0  0  0  0  0
   25.4170    8.2190   -6.5320 C   0  0  0  0  0  0  0  0  0  0  0  0
   26.1350    7.2700   -7.1380 C   0  0  0  0  0  0  0  0  0  0  0  0
   24.4300   10.2620   -7.2060 C   0  0  0  0  0  0  0  0  0  0  0  0
   24.2180   11.1930   -8.2170 C   0  0  0  0  0  0  0  0  0  0  0  0
   23.9090   10.4830   -5.9360 C   0  0  0  0  0  0  0  0  0  0  0  0
   23.1770   11.6360   -5.6780 C   0  0  0  0  0  0  0  0  0  0  0  0
   23.4860   12.3450   -7.9570 N   0  0  0  0  0  0  0  0  0  0  0  0
   22.9380   12.5800   -6.7130 C   0  0  0  0  0  0  0  0  0  0  0  0
   22.6340   11.8860   -4.2930 C   0  0  1  0  0  0  0  0  0  0  0  0
   28.6506    5.9796  -11.2040 H   0  0  0  0  0  0  0  0  0  0  0  0
   30.2099    7.0900  -12.7428 H   0  0  0  0  0  0  0  0  0  0  0  0
   27.3888    9.8721   -9.8454 H   0  0  0  0  0  0  0  0  0  0  0  0
   30.6376   12.0969  -13.0539 H   0  0  0  0  0  0  0  0  0  0  0  0
   28.7242   11.8516  -11.1763 H   0  0  0  0  0  0  0  0  0  0  0  0
   25.1005    8.2134   -5.4785 H   0  0  0  0  0  0  0  0  0  0  0  0
   26.4888    6.3464   -6.6566 H   0  0  0  0  0  0  0  0  0  0  0  0
   24.6296   11.0175   -9.2219 H   0  0  0  0  0  0  0  0  0  0  0  0
   24.0759    9.7462   -5.1364 H   0  0  0  0  0  0  0  0  0  0  0  0
   22.3300   13.4775   -6.5265 H   0  0  0  0  0  0  0  0  0  0  0  0
   23.3669   11.5486   -3.5454 H   0  0  0  0  0  0  0  0  0  0  0  0
   22.4452   12.9617   -4.1618 H   0  0  0  0  0  0  0  0  0  0  0  0
   21.6939   11.3300   -4.1618 H   0  0  0  0  0  0  0  0  0  0  0  0
 11  5  1  0
 11 12  2  0
 11 15  1  0
 12 13  1  0
 13 16  1  0
 13 14  1  0
 14 15  2  0
 16 17  2  0
 16 18  1  0
 17 20  1  0
 18 19  2  0
 19 21  1  0
 19 22  1  0
 20 21  2  0
  5  1  1  0
  1  2  2  0
  1  7  1  0
  2  3  1  0
  3  4  1  0
  4  8  2  0
  4  6  1  0
  6 10  1  0
  6  7  2  0
  8  9  1  0
  9 10  2  0
  2 23  1  0
  3 24  1  0
  7 25  1  0
  9 26  1  0
 10 27  1  0
 14 28  1  0
 15 29  1  0
 17 30  1  0
 18 31  1  0
 21 32  1  0
 22 33  1  1
 22 34  1  0
 22 35  1  0
M  END
>  <Pose ID>  (499)
399

>  <Score>  (499)
-5.423433303833008

>  <smiles>  (499)
Cc1cncc(-n2ccc(Oc3c[nH]c4nccc-4c3)n2)c1

$$$$

     RDKit          3D

 35 38  0  0  0  0  0  0  0  0999 V2000
   27.5000    7.7160   -9.7710 C   0  0  0  0  0  0  0  0  0  0  0  0
   26.7310    6.7920   -9.0730 N   0  0  0  0  0  0  0  0  0  0  0  0
   26.0340    7.1870   -7.9370 C   0  0  0  0  0  0  0  0  0  0  0  0
   25.3350    6.2040   -7.2920 C   0  0  0  0  0  0  0  0  0  0  0  0
   24.5930    6.4920   -6.1540 N   0  0  0  0  0  0  0  0  0  0  0  0
   24.5610    7.7850   -5.6510 C   0  0  0  0  0  0  0  0  0  0  0  0
   25.2780    8.7960   -6.2850 C   0  0  0  0  0  0  0  0  0  0  0  0
   26.1060    8.5030   -7.4990 C   0  0  0  0  0  0  0  0  0  0  0  0
   27.5720    9.0340   -9.3320 C   0  0  0  0  0  0  0  0  0  0  0  0
   26.8750    9.4270   -8.1970 C   0  0  0  0  0  0  0  0  0  0  0  0
   28.2660    7.5740  -10.9010 N   0  0  0  0  0  0  0  0  0  0  0  0
   28.9960    8.4060  -11.5350 C   0  0  0  0  0  0  0  0  0  0  0  0
   30.3890    8.3460  -11.7120 N   0  0  0  0  0  0  0  0  0  0  0  0
   30.7180    9.4310  -12.4200 O   0  0  0  0  0  0  0  0  0  0  0  0
   29.6870   10.1440  -12.7050 C   0  0  0  0  0  0  0  0  0  0  0  0
   28.5590    9.5050  -12.1910 C   0  0  0  0  0  0  0  0  0  0  0  0
   23.8090    8.0730   -4.4980 C   0  0  0  0  0  0  0  0  0  0  0  0
   23.0850    7.3400   -3.6930 N   0  0  0  0  0  0  0  0  0  0  0  0
   22.5600    8.1130   -2.7320 C   0  0  0  0  0  0  0  0  0  0  0  0
   23.7850    9.3690   -4.0010 C   0  0  0  0  0  0  0  0  0  0  0  0
   23.0800    9.4960   -2.9840 C   0  0  0  0  0  0  0  0  0  0  0  0
   26.9510   10.8570   -7.7220 C   0  0  1  0  0  0  0  0  0  0  0  0
   25.3609    5.1746   -7.6787 H   0  0  0  0  0  0  0  0  0  0  0  0
   25.2362    9.8218   -5.8901 H   0  0  0  0  0  0  0  0  0  0  0  0
   28.1811    9.7650   -9.8839 H   0  0  0  0  0  0  0  0  0  0  0  0
   28.2482    6.6285  -11.3092 H   0  0  0  0  0  0  0  0  0  0  0  0
   29.6934   11.0944  -13.2589 H   0  0  0  0  0  0  0  0  0  0  0  0
   27.5143    9.8321  -12.2985 H   0  0  0  0  0  0  0  0  0  0  0  0
   22.9403    6.3242   -3.7834 H   0  0  0  0  0  0  0  0  0  0  0  0
   21.8850    7.7968   -1.9231 H   0  0  0  0  0  0  0  0  0  0  0  0
   24.3357   10.2024   -4.4616 H   0  0  0  0  0  0  0  0  0  0  0  0
   22.8839   10.4103   -2.4046 H   0  0  0  0  0  0  0  0  0  0  0  0
   26.9521   10.8785   -6.6222 H   0  0  0  0  0  0  0  0  0  0  0  0
   27.8750   11.3199   -8.0987 H   0  0  0  0  0  0  0  0  0  0  0  0
   26.0813   11.4152   -8.0987 H   0  0  0  0  0  0  0  0  0  0  0  0
  1 11  1  0
  1  9  1  0
  1  2  2  0
  2  3  1  0
  3  8  2  0
  3  4  1  0
  4  5  2  0
  5  6  1  0
  6  7  2  0
  6 17  1  0
  7  8  1  0
  8 10  1  0
  9 10  2  0
 10 22  1  0
 11 12  1  0
 12 16  1  0
 12 13  2  0
 13 14  1  0
 14 15  1  0
 15 16  2  0
 17 20  2  0
 17 18  1  0
 18 19  1  0
 19 21  2  0
 20 21  1  0
  4 23  1  0
  7 24  1  0
  9 25  1  0
 11 26  1  0
 15 27  1  0
 16 28  1  0
 18 29  1  0
 19 30  1  0
 20 31  1  0
 21 32  1  0
 22 33  1  1
 22 34  1  0
 22 35  1  0
M  END
>  <Pose ID>  (500)
33

>  <Score>  (500)
-5.422708034515381

>  <smiles>  (500)
Cc1cc(Nc2ccon2)nc2cnc(-c3ccc[nH]3)cc12

$$$$

     RDKit          3D

 38 41  0  0  0  0  0  0  0  0999 V2000
   28.1300    7.9000  -10.5350 C   0  0  0  0  0  0  0  0  0  0  0  0
   29.0160    7.1390  -11.2830 C   0  0  0  0  0  0  0  0  0  0  0  0
   29.9060    7.7600  -12.1520 N   0  0  0  0  0  0  0  0  0  0  0  0
   29.9080    9.1450  -12.2720 C   0  0  0  0  0  0  0  0  0  0  0  0
   27.2710    7.0980   -9.6680 O   0  0  0  0  0  0  0  0  0  0  0  0
   29.0160    9.9090  -11.5240 C   0  0  0  0  0  0  0  0  0  0  0  0
   28.1290    9.2840  -10.6560 C   0  0  0  0  0  0  0  0  0  0  0  0
   30.6590    9.9660  -13.0320 N   0  0  0  0  0  0  0  0  0  0  0  0
   30.2710   11.2650  -12.7990 C   0  0  0  0  0  0  0  0  0  0  0  0
   29.2450   11.0590  -11.8490 C   0  0  0  0  0  0  0  0  0  0  0  0
   26.5070    7.6210   -8.6170 C   0  0  0  0  0  0  0  0  0  0  0  0
   25.7840    8.7740   -8.8740 N   0  0  0  0  0  0  0  0  0  0  0  0
   25.1330    9.1370   -7.7110 N   0  0  0  0  0  0  0  0  0  0  0  0
   25.4290    8.2390   -6.7610 C   0  0  0  0  0  0  0  0  0  0  0  0
   26.2380    7.3170   -7.2950 C   0  0  0  0  0  0  0  0  0  0  0  0
   24.3430   10.1570   -7.5420 C   0  0  0  0  0  0  0  0  0  0  0  0
   23.7590   10.2660   -6.2850 N   0  0  0  0  0  0  0  0  0  0  0  0
   24.2670   11.2170   -8.4380 C   0  0  0  0  0  0  0  0  0  0  0  0
   23.6070   12.3860   -8.0770 C   0  0  0  0  0  0  0  0  0  0  0  0
   23.0980   11.4340   -5.9250 C   0  0  0  0  0  0  0  0  0  0  0  0
   23.0180   12.4680   -6.8100 C   0  0  0  0  0  0  0  0  0  0  0  0
   22.4710   11.5590   -4.5590 C   0  0  1  0  0  0  0  0  0  0  0  0
   28.4690   12.2130  -11.2640 C   0  0  1  0  0  0  0  0  0  0  0  0
   29.0145    6.0431  -11.1886 H   0  0  0  0  0  0  0  0  0  0  0  0
   30.5638    7.1940  -12.7068 H   0  0  0  0  0  0  0  0  0  0  0  0
   27.4246    9.8863  -10.0635 H   0  0  0  0  0  0  0  0  0  0  0  0
   30.6525   12.2019  -13.2311 H   0  0  0  0  0  0  0  0  0  0  0  0
   25.0689    8.2570   -5.7218 H   0  0  0  0  0  0  0  0  0  0  0  0
   26.6331    6.4416   -6.7588 H   0  0  0  0  0  0  0  0  0  0  0  0
   24.7290   11.1308   -9.4325 H   0  0  0  0  0  0  0  0  0  0  0  0
   23.5486   13.2332   -8.7761 H   0  0  0  0  0  0  0  0  0  0  0  0
   22.4805   13.3838   -6.5229 H   0  0  0  0  0  0  0  0  0  0  0  0
   23.2397   11.4057   -3.7873 H   0  0  0  0  0  0  0  0  0  0  0  0
   22.0336   12.5620   -4.4467 H   0  0  0  0  0  0  0  0  0  0  0  0
   21.6824   10.8004   -4.4467 H   0  0  0  0  0  0  0  0  0  0  0  0
   28.5048   12.1598  -10.1659 H   0  0  0  0  0  0  0  0  0  0  0  0
   28.9135   13.1615  -11.5998 H   0  0  0  0  0  0  0  0  0  0  0  0
   27.4229   12.1591  -11.5998 H   0  0  0  0  0  0  0  0  0  0  0  0
  5  1  1  0
  5 11  1  0
 11 12  2  0
 11 15  1  0
 12 13  1  0
 13 16  1  0
 13 14  1  0
 14 15  2  0
 16 18  1  0
 16 17  2  0
 17 20  1  0
 18 19  2  0
 19 21  1  0
 20 21  2  0
 20 22  1  0
  1  2  2  0
  1  7  1  0
  2  3  1  0
  3  4  1  0
  4  8  2  0
  4  6  1  0
  6 10  1  0
  6  7  2  0
  8  9  1  0
  9 10  2  0
 10 23  1  0
  2 24  1  0
  3 25  1  0
  7 26  1  0
  9 27  1  0
 14 28  1  0
 15 29  1  0
 18 30  1  0
 19 31  1  0
 21 32  1  0
 22 33  1  1
 22 34  1  0
 22 35  1  0
 23 36  1  1
 23 37  1  0
 23 38  1  0
M  END
>  <Pose ID>  (501)
314

>  <Score>  (501)
-5.420598030090332

>  <smiles>  (501)
Cc1cccc(-n2ccc(Oc3c[nH]c4ncc(C)c-4c3)n2)n1

$$$$

     RDKit          3D

 29 31  0  0  0  0  0  0  0  0999 V2000
   27.8280    7.8390  -10.2110 C   0  0  0  0  0  0  0  0  0  0  0  0
   28.7850    7.1250  -10.9200 C   0  0  0  0  0  0  0  0  0  0  0  0
   29.6050    7.7770  -11.8320 N   0  0  0  0  0  0  0  0  0  0  0  0
   29.4670    9.1450  -12.0370 C   0  0  0  0  0  0  0  0  0  0  0  0
   27.0560    7.0110   -9.2870 O   0  0  0  0  0  0  0  0  0  0  0  0
   28.5080    9.8600  -11.3270 C   0  0  0  0  0  0  0  0  0  0  0  0
   27.6910    9.2070  -10.4130 C   0  0  0  0  0  0  0  0  0  0  0  0
   30.1310    9.9880  -12.8520 N   0  0  0  0  0  0  0  0  0  0  0  0
   29.6170   11.2550  -12.6920 C   0  0  0  0  0  0  0  0  0  0  0  0
   28.6200   11.0060  -11.7240 C   0  0  0  0  0  0  0  0  0  0  0  0
   26.2510    7.5200   -8.2620 C   0  0  0  0  0  0  0  0  0  0  0  0
   25.4140    8.5770   -8.5830 N   0  0  0  0  0  0  0  0  0  0  0  0
   24.7350    8.9450   -7.4350 N   0  0  0  0  0  0  0  0  0  0  0  0
   25.1230    8.1390   -6.4370 C   0  0  0  0  0  0  0  0  0  0  0  0
   26.0180    7.2710   -6.9200 C   0  0  0  0  0  0  0  0  0  0  0  0
   23.7850   10.0280   -7.4550 C   0  0  1  0  0  0  0  0  0  0  0  0
   27.7330   12.1110  -11.2030 C   0  0  1  0  0  0  0  0  0  0  0  0
   28.8938    6.0423  -10.7592 H   0  0  0  0  0  0  0  0  0  0  0  0
   30.3154    7.2468  -12.3565 H   0  0  0  0  0  0  0  0  0  0  0  0
   26.9352    9.7730   -9.8488 H   0  0  0  0  0  0  0  0  0  0  0  0
   29.9031   12.1977  -13.1814 H   0  0  0  0  0  0  0  0  0  0  0  0
   24.7659    8.1839   -5.3975 H   0  0  0  0  0  0  0  0  0  0  0  0
   26.5000    6.4736   -6.3353 H   0  0  0  0  0  0  0  0  0  0  0  0
   23.5337   10.3144   -6.4231 H   0  0  0  0  0  0  0  0  0  0  0  0
   24.2232   10.8905   -7.9786 H   0  0  0  0  0  0  0  0  0  0  0  0
   22.8728    9.7059   -7.9786 H   0  0  0  0  0  0  0  0  0  0  0  0
   27.7416   12.1003  -10.1031 H   0  0  0  0  0  0  0  0  0  0  0  0
   28.1060   13.0812  -11.5632 H   0  0  0  0  0  0  0  0  0  0  0  0
   26.7051   11.9567  -11.5632 H   0  0  0  0  0  0  0  0  0  0  0  0
  1  2  2  0
  1  7  1  0
  1  5  1  0
  2  3  1  0
  3  4  1  0
  4  8  2  0
  4  6  1  0
  6 10  1  0
  6  7  2  0
  8  9  1  0
  9 10  2  0
 10 17  1  0
  5 11  1  0
 11 12  2  0
 11 15  1  0
 12 13  1  0
 13 16  1  0
 13 14  1  0
 14 15  2  0
  2 18  1  0
  3 19  1  0
  7 20  1  0
  9 21  1  0
 14 22  1  0
 15 23  1  0
 16 24  1  1
 16 25  1  0
 16 26  1  0
 17 27  1  1
 17 28  1  0
 17 29  1  0
M  END
>  <Pose ID>  (502)
473

>  <Score>  (502)
-5.417105197906494

>  <smiles>  (502)
Cc1cnc2[nH]cc(Oc3ccn(C)n3)cc1-2

$$$$

     RDKit          3D

 27 29  0  0  0  0  0  0  0  0999 V2000
   27.4810    7.7380   -9.7690 C   0  0  0  0  0  0  0  0  0  0  0  0
   26.7430    6.8050   -9.0530 N   0  0  0  0  0  0  0  0  0  0  0  0
   25.9850    7.2080   -7.9610 C   0  0  0  0  0  0  0  0  0  0  0  0
   25.3200    6.2170   -7.2920 C   0  0  0  0  0  0  0  0  0  0  0  0
   24.5230    6.5130   -6.1940 N   0  0  0  0  0  0  0  0  0  0  0  0
   24.4010    7.8240   -5.7550 C   0  0  0  0  0  0  0  0  0  0  0  0
   25.0790    8.8440   -6.4140 C   0  0  0  0  0  0  0  0  0  0  0  0
   25.9650    8.5460   -7.5850 C   0  0  0  0  0  0  0  0  0  0  0  0
   27.4630    9.0770   -9.3930 C   0  0  0  0  0  0  0  0  0  0  0  0
   26.7040    9.4800   -8.3010 C   0  0  0  0  0  0  0  0  0  0  0  0
   28.2940    7.5900  -10.8670 N   0  0  0  0  0  0  0  0  0  0  0  0
   28.9980    8.4320  -11.5160 C   0  0  0  0  0  0  0  0  0  0  0  0
   30.3970    8.4460  -11.6440 N   0  0  0  0  0  0  0  0  0  0  0  0
   30.6880    9.5160  -12.3920 O   0  0  0  0  0  0  0  0  0  0  0  0
   29.6280   10.1520  -12.7450 C   0  0  0  0  0  0  0  0  0  0  0  0
   28.5220    9.4730  -12.2360 C   0  0  0  0  0  0  0  0  0  0  0  0
   24.9200   10.2690   -5.9450 C   0  0  1  0  0  0  0  0  0  0  0  0
   25.4178    5.1740   -7.6277 H   0  0  0  0  0  0  0  0  0  0  0  0
   23.7681    8.0563   -4.8858 H   0  0  0  0  0  0  0  0  0  0  0  0
   28.0488    9.8160   -9.9593 H   0  0  0  0  0  0  0  0  0  0  0  0
   26.6881   10.5388   -8.0032 H   0  0  0  0  0  0  0  0  0  0  0  0
   28.3435    6.6275  -11.2304 H   0  0  0  0  0  0  0  0  0  0  0  0
   29.5988   11.0733  -13.3453 H   0  0  0  0  0  0  0  0  0  0  0  0
   27.4646    9.7340  -12.3905 H   0  0  0  0  0  0  0  0  0  0  0  0
   24.9171   10.2949   -4.8453 H   0  0  0  0  0  0  0  0  0  0  0  0
   25.7561   10.8752   -6.3239 H   0  0  0  0  0  0  0  0  0  0  0  0
   23.9709   10.6760   -6.3239 H   0  0  0  0  0  0  0  0  0  0  0  0
  1 11  1  0
  1  9  1  0
  1  2  2  0
  2  3  1  0
  3  8  2  0
  3  4  1  0
  4  5  2  0
  5  6  1  0
  6  7  2  0
  7  8  1  0
  7 17  1  0
  8 10  1  0
  9 10  2  0
 11 12  1  0
 12 16  1  0
 12 13  2  0
 13 14  1  0
 14 15  1  0
 15 16  2  0
  4 18  1  0
  6 19  1  0
  9 20  1  0
 10 21  1  0
 11 22  1  0
 15 23  1  0
 16 24  1  0
 17 25  1  1
 17 26  1  0
 17 27  1  0
M  END
>  <Pose ID>  (503)
24

>  <Score>  (503)
-5.408547878265381

>  <smiles>  (503)
Cc1cncc2nc(Nc3ccon3)ccc12

$$$$

     RDKit          3D

 34 37  0  0  0  0  0  0  0  0999 V2000
   27.8330    7.8160  -10.2200 C   0  0  0  0  0  0  0  0  0  0  0  0
   28.8210    7.1150  -10.9020 C   0  0  0  0  0  0  0  0  0  0  0  0
   29.6470    7.7760  -11.8010 N   0  0  0  0  0  0  0  0  0  0  0  0
   29.4890    9.1400  -12.0190 C   0  0  0  0  0  0  0  0  0  0  0  0
   27.0570    6.9790   -9.3090 O   0  0  0  0  0  0  0  0  0  0  0  0
   28.4990    9.8420  -11.3380 C   0  0  0  0  0  0  0  0  0  0  0  0
   27.6740    9.1790  -10.4380 C   0  0  0  0  0  0  0  0  0  0  0  0
   30.1540    9.9890  -12.8260 N   0  0  0  0  0  0  0  0  0  0  0  0
   29.6120   11.2470  -12.6900 C   0  0  0  0  0  0  0  0  0  0  0  0
   28.5980   10.9870  -11.7420 C   0  0  0  0  0  0  0  0  0  0  0  0
   26.2170    7.4810   -8.3070 C   0  0  0  0  0  0  0  0  0  0  0  0
   25.3690    8.5180   -8.6550 N   0  0  0  0  0  0  0  0  0  0  0  0
   24.6860    8.8600   -7.5540 N   0  0  0  0  0  0  0  0  0  0  0  0
   25.0330    8.0640   -6.4700 C   0  0  0  0  0  0  0  0  0  0  0  0
   25.9590    7.2380   -6.9700 C   0  0  0  0  0  0  0  0  0  0  0  0
   23.7210    9.8490   -7.4080 C   0  0  0  0  0  0  0  0  0  0  0  0
   23.1030   10.0420   -6.1780 N   0  0  0  0  0  0  0  0  0  0  0  0
   23.4510    9.2450   -5.0930 C   0  0  0  0  0  0  0  0  0  0  0  0
   24.4160    8.2560   -5.2390 C   0  0  0  0  0  0  0  0  0  0  0  0
   22.7800    9.4540   -3.7580 C   0  0  1  0  0  0  0  0  0  0  0  0
   27.6790   12.0780  -11.2510 C   0  0  1  0  0  0  0  0  0  0  0  0
   28.9483    6.0361  -10.7293 H   0  0  0  0  0  0  0  0  0  0  0  0
   30.3776    7.2554  -12.3070 H   0  0  0  0  0  0  0  0  0  0  0  0
   26.8935    9.7341   -9.8970 H   0  0  0  0  0  0  0  0  0  0  0  0
   29.8906   12.1906  -13.1820 H   0  0  0  0  0  0  0  0  0  0  0  0
   26.4593    6.4533   -6.3834 H   0  0  0  0  0  0  0  0  0  0  0  0
   23.4460   10.4796   -8.2663 H   0  0  0  0  0  0  0  0  0  0  0  0
   24.6917    7.6252   -4.3810 H   0  0  0  0  0  0  0  0  0  0  0  0
   23.4931    9.2319   -2.9504 H   0  0  0  0  0  0  0  0  0  0  0  0
   22.4459   10.4988   -3.6751 H   0  0  0  0  0  0  0  0  0  0  0  0
   21.9117    8.7837   -3.6751 H   0  0  0  0  0  0  0  0  0  0  0  0
   27.6731   12.0850  -10.1510 H   0  0  0  0  0  0  0  0  0  0  0  0
   28.0338   13.0509  -11.6220 H   0  0  0  0  0  0  0  0  0  0  0  0
   26.6600   11.8936  -11.6220 H   0  0  0  0  0  0  0  0  0  0  0  0
  1  2  2  0
  1  7  1  0
  1  5  1  0
  2  3  1  0
  3  4  1  0
  4  8  2  0
  4  6  1  0
  6 10  1  0
  6  7  2  0
  8  9  1  0
  9 10  2  0
 10 21  1  0
  5 11  1  0
 11 12  2  0
 11 15  1  0
 12 13  1  0
 13 16  1  0
 13 14  1  0
 14 15  2  0
 14 19  1  0
 16 17  2  0
 17 18  1  0
 18 19  2  0
 18 20  1  0
  2 22  1  0
  3 23  1  0
  7 24  1  0
  9 25  1  0
 15 26  1  0
 16 27  1  0
 19 28  1  0
 20 29  1  1
 20 30  1  0
 20 31  1  0
 21 32  1  1
 21 33  1  0
 21 34  1  0
M  END
>  <Pose ID>  (504)
293

>  <Score>  (504)
-5.407776355743408

>  <smiles>  (504)
Cc1cc2cc(Oc3c[nH]c4ncc(C)c-4c3)nn2cn1

$$$$

     RDKit          3D

 38 41  0  0  0  0  0  0  0  0999 V2000
   27.8720    7.8770  -10.3190 C   0  0  0  0  0  0  0  0  0  0  0  0
   28.8720    7.1290  -10.9280 C   0  0  0  0  0  0  0  0  0  0  0  0
   29.7880    7.7500  -11.7680 N   0  0  0  0  0  0  0  0  0  0  0  0
   29.7030    9.1180  -12.0030 C   0  0  0  0  0  0  0  0  0  0  0  0
   26.9950    7.0810   -9.4610 O   0  0  0  0  0  0  0  0  0  0  0  0
   28.7000    9.8640  -11.3940 C   0  0  0  0  0  0  0  0  0  0  0  0
   27.7860    9.2430  -10.5510 C   0  0  0  0  0  0  0  0  0  0  0  0
   30.4580    9.9310  -12.7630 N   0  0  0  0  0  0  0  0  0  0  0  0
   29.9620   11.2130  -12.6690 C   0  0  0  0  0  0  0  0  0  0  0  0
   28.8740   11.0010  -11.7930 C   0  0  0  0  0  0  0  0  0  0  0  0
   26.1140    7.6230   -8.5210 C   0  0  0  0  0  0  0  0  0  0  0  0
   25.3360    8.6940   -8.9310 N   0  0  0  0  0  0  0  0  0  0  0  0
   24.5630    9.0940   -7.8560 N   0  0  0  0  0  0  0  0  0  0  0  0
   24.8400    8.2940   -6.8150 C   0  0  0  0  0  0  0  0  0  0  0  0
   25.7530    7.3980   -7.2030 C   0  0  0  0  0  0  0  0  0  0  0  0
   23.6450   10.1980   -7.9770 C   0  0  1  0  0  0  0  0  0  0  0  0
   30.4440   12.4860  -13.3180 C   0  0  1  0  0  0  0  0  0  0  0  0
   24.2740    8.3800   -5.5110 C   0  0  0  0  0  0  0  0  0  0  0  0
   24.9880    7.9690   -4.3920 N   0  0  0  0  0  0  0  0  0  0  0  0
   24.3950    8.0130   -3.1350 C   0  0  0  0  0  0  0  0  0  0  0  0
   23.0890    8.4660   -2.9980 C   0  0  0  0  0  0  0  0  0  0  0  0
   22.9680    8.8330   -5.3740 C   0  0  0  0  0  0  0  0  0  0  0  0
   22.3900    8.8950   -4.1560 C   0  0  0  0  0  0  0  0  0  0  0  0
   28.9384    6.0463  -10.7453 H   0  0  0  0  0  0  0  0  0  0  0  0
   30.5312    7.1963  -12.2174 H   0  0  0  0  0  0  0  0  0  0  0  0
   26.9942    9.8341  -10.0675 H   0  0  0  0  0  0  0  0  0  0  0  0
   28.2142   11.8257  -11.4855 H   0  0  0  0  0  0  0  0  0  0  0  0
   26.1590    6.5975   -6.5672 H   0  0  0  0  0  0  0  0  0  0  0  0
   23.3557   10.5459   -6.9744 H   0  0  0  0  0  0  0  0  0  0  0  0
   24.1298   11.0197   -8.5245 H   0  0  0  0  0  0  0  0  0  0  0  0
   22.7486    9.8712   -8.5245 H   0  0  0  0  0  0  0  0  0  0  0  0
   30.7192   13.2129  -12.5397 H   0  0  0  0  0  0  0  0  0  0  0  0
   31.3221   12.2688  -13.9439 H   0  0  0  0  0  0  0  0  0  0  0  0
   29.6422   12.9049  -13.9439 H   0  0  0  0  0  0  0  0  0  0  0  0
   24.9603    7.6890   -2.2488 H   0  0  0  0  0  0  0  0  0  0  0  0
   22.6057    8.4917   -2.0102 H   0  0  0  0  0  0  0  0  0  0  0  0
   22.4011    9.1433   -6.2642 H   0  0  0  0  0  0  0  0  0  0  0  0
   21.3651    9.2826   -4.0598 H   0  0  0  0  0  0  0  0  0  0  0  0
  5  1  1  0
  5 11  1  0
  1  2  2  0
  1  7  1  0
  2  3  1  0
  3  4  1  0
  4  8  2  0
  4  6  1  0
  6 10  1  0
  6  7  2  0
  8  9  1  0
  9 17  1  0
  9 10  2  0
 11 12  2  0
 11 15  1  0
 12 13  1  0
 13 16  1  0
 13 14  1  0
 14 15  2  0
 14 18  1  0
 18 22  1  0
 18 19  2  0
 19 20  1  0
 20 21  2  0
 21 23  1  0
 22 23  2  0
  2 24  1  0
  3 25  1  0
  7 26  1  0
 10 27  1  0
 15 28  1  0
 16 29  1  1
 16 30  1  0
 16 31  1  0
 17 32  1  1
 17 33  1  0
 17 34  1  0
 20 35  1  0
 21 36  1  0
 22 37  1  0
 23 38  1  0
M  END
>  <Pose ID>  (505)
480

>  <Score>  (505)
-5.4018874168396

>  <smiles>  (505)
Cc1cc2cc(Oc3cc(-c4ccccn4)n(C)n3)c[nH]c-2n1

$$$$

     RDKit          3D

 35 38  0  0  0  0  0  0  0  0999 V2000
   27.6160    7.7900  -10.1280 C   0  0  0  0  0  0  0  0  0  0  0  0
   28.4160    7.0740  -11.0090 C   0  0  0  0  0  0  0  0  0  0  0  0
   29.2460    7.7460  -11.8980 N   0  0  0  0  0  0  0  0  0  0  0  0
   29.2760    9.1360  -11.9070 C   0  0  0  0  0  0  0  0  0  0  0  0
   26.8120    6.9380   -9.2560 O   0  0  0  0  0  0  0  0  0  0  0  0
   28.4720    9.8530  -11.0260 C   0  0  0  0  0  0  0  0  0  0  0  0
   27.6460    9.1790  -10.1350 C   0  0  0  0  0  0  0  0  0  0  0  0
   29.9810   10.0000  -12.6620 N   0  0  0  0  0  0  0  0  0  0  0  0
   29.6520   11.2840  -12.2900 C   0  0  0  0  0  0  0  0  0  0  0  0
   28.7050   11.0220  -11.2770 C   0  0  0  0  0  0  0  0  0  0  0  0
   26.1580    7.3890   -8.1050 C   0  0  0  0  0  0  0  0  0  0  0  0
   25.4460    8.5730   -8.2060 N   0  0  0  0  0  0  0  0  0  0  0  0
   24.9080    8.8540   -6.9640 N   0  0  0  0  0  0  0  0  0  0  0  0
   25.2570    7.8730   -6.1190 C   0  0  0  0  0  0  0  0  0  0  0  0
   25.9920    6.9820   -6.7910 C   0  0  0  0  0  0  0  0  0  0  0  0
   24.1410    9.9280   -6.6950 C   0  0  0  0  0  0  0  0  0  0  0  0
   24.6930   11.1740   -6.9660 C   0  0  0  0  0  0  0  0  0  0  0  0
   23.0410    9.8240   -5.8520 C   0  0  0  0  0  0  0  0  0  0  0  0
   24.1440   12.3160   -6.3960 N   0  0  0  0  0  0  0  0  0  0  0  0
   22.4920   10.9660   -5.2810 C   0  0  0  0  0  0  0  0  0  0  0  0
   23.0430   12.2130   -5.5520 C   0  0  0  0  0  0  0  0  0  0  0  0
   22.4480   13.4530   -4.9320 C   0  0  1  0  0  0  0  0  0  0  0  0
   28.3926    5.9743  -11.0030 H   0  0  0  0  0  0  0  0  0  0  0  0
   29.8393    7.2141  -12.5507 H   0  0  0  0  0  0  0  0  0  0  0  0
   27.0151    9.7457   -9.4344 H   0  0  0  0  0  0  0  0  0  0  0  0
   30.0234   12.2453  -12.6747 H   0  0  0  0  0  0  0  0  0  0  0  0
   28.1998   11.8371  -10.7381 H   0  0  0  0  0  0  0  0  0  0  0  0
   24.9849    7.8121   -5.0549 H   0  0  0  0  0  0  0  0  0  0  0  0
   26.4061    6.0575   -6.3622 H   0  0  0  0  0  0  0  0  0  0  0  0
   25.5647   11.2563   -7.6319 H   0  0  0  0  0  0  0  0  0  0  0  0
   22.6047    8.8375   -5.6366 H   0  0  0  0  0  0  0  0  0  0  0  0
   21.6210   10.8830   -4.6143 H   0  0  0  0  0  0  0  0  0  0  0  0
   22.4878   13.3701   -3.8358 H   0  0  0  0  0  0  0  0  0  0  0  0
   23.0209   14.3351   -5.2540 H   0  0  0  0  0  0  0  0  0  0  0  0
   21.4014   13.5580   -5.2540 H   0  0  0  0  0  0  0  0  0  0  0  0
 11  5  1  0
 11 12  2  0
 11 15  1  0
 12 13  1  0
 13 16  1  0
 13 14  1  0
 14 15  2  0
 16 17  2  0
 16 18  1  0
 17 19  1  0
 18 20  2  0
 19 21  2  0
 20 21  1  0
 21 22  1  0
  5  1  1  0
  1  2  2  0
  1  7  1  0
  2  3  1  0
  3  4  1  0
  4  8  2  0
  4  6  1  0
  6 10  1  0
  6  7  2  0
  8  9  1  0
  9 10  2  0
  2 23  1  0
  3 24  1  0
  7 25  1  0
  9 26  1  0
 10 27  1  0
 14 28  1  0
 15 29  1  0
 17 30  1  0
 18 31  1  0
 20 32  1  0
 22 33  1  1
 22 34  1  0
 22 35  1  0
M  END
>  <Pose ID>  (506)
458

>  <Score>  (506)
-5.401272296905518

>  <smiles>  (506)
Cc1ccc(-n2ccc(Oc3c[nH]c4nccc-4c3)n2)cn1

$$$$

     RDKit          3D

 17 18  0  0  0  0  0  0  0  0999 V2000
   28.1640    7.6040  -10.4770 C   0  0  0  0  0  0  0  0  0  0  0  0
   27.2760    6.9570   -9.6240 N   0  0  0  0  0  0  0  0  0  0  0  0
   26.1420    7.6200   -9.1770 C   0  0  0  0  0  0  0  0  0  0  0  0
   25.8900    8.9260   -9.5800 N   0  0  0  0  0  0  0  0  0  0  0  0
   26.7790    9.5700  -10.4340 C   0  0  0  0  0  0  0  0  0  0  0  0
   27.9160    8.9100  -10.8820 C   0  0  0  0  0  0  0  0  0  0  0  0
   26.7550   10.8100  -10.9550 N   0  0  0  0  0  0  0  0  0  0  0  0
   27.8710   10.9810  -11.7430 C   0  0  0  0  0  0  0  0  0  0  0  0
   28.4890    9.7200  -11.5870 C   0  0  0  0  0  0  0  0  0  0  0  0
   29.7980    9.3940  -12.2630 C   0  0  1  0  0  0  0  0  0  0  0  0
   29.0643    7.0809  -10.8317 H   0  0  0  0  0  0  0  0  0  0  0  0
   25.4398    7.1100   -8.5011 H   0  0  0  0  0  0  0  0  0  0  0  0
   25.0472    9.4156   -9.2471 H   0  0  0  0  0  0  0  0  0  0  0  0
   28.1916   11.8545  -12.3296 H   0  0  0  0  0  0  0  0  0  0  0  0
   30.5669    9.2025  -11.5001 H   0  0  0  0  0  0  0  0  0  0  0  0
   29.6736    8.4994  -12.8909 H   0  0  0  0  0  0  0  0  0  0  0  0
   30.1077   10.2424  -12.8909 H   0  0  0  0  0  0  0  0  0  0  0  0
  1  6  2  0
  1  2  1  0
  2  3  2  0
  3  4  1  0
  4  5  1  0
  5  7  2  0
  5  6  1  0
  6  9  1  0
  7  8  1  0
  8  9  2  0
  9 10  1  0
  1 11  1  0
  3 12  1  0
  4 13  1  0
  8 14  1  0
 10 15  1  1
 10 16  1  0
 10 17  1  0
M  END
>  <Pose ID>  (507)
87

>  <Score>  (507)
-5.3995232582092285

>  <smiles>  (507)
Cc1cnc2[nH]cncc1-2

$$$$

     RDKit          3D

 26 28  0  0  0  0  0  0  0  0999 V2000
   28.5830    9.5470  -12.0540 C   0  0  0  0  0  0  0  0  0  0  0  0
   29.3730    8.4360  -11.8220 C   0  0  0  0  0  0  0  0  0  0  0  0
   28.9720    7.4840  -10.8910 N   0  0  0  0  0  0  0  0  0  0  0  0
   27.7930    7.6590  -10.1790 C   0  0  0  0  0  0  0  0  0  0  0  0
   27.4090    9.7400  -11.3270 C   0  0  0  0  0  0  0  0  0  0  0  0
   27.0110    8.7860  -10.3970 C   0  0  0  0  0  0  0  0  0  0  0  0
   27.2080    6.8900   -9.2420 N   0  0  0  0  0  0  0  0  0  0  0  0
   26.0440    7.5000   -8.8320 C   0  0  0  0  0  0  0  0  0  0  0  0
   26.0700    8.6640   -9.6320 C   0  0  0  0  0  0  0  0  0  0  0  0
   25.0300    7.2470   -7.9410 N   0  0  0  0  0  0  0  0  0  0  0  0
   24.7990    7.9840   -6.7710 C   0  0  0  0  0  0  0  0  0  0  0  0
   23.9920    9.1140   -6.8300 C   0  0  0  0  0  0  0  0  0  0  0  0
   23.7530    9.8570   -5.6800 C   0  0  0  0  0  0  0  0  0  0  0  0
   24.3210    9.4710   -4.4720 C   0  0  0  0  0  0  0  0  0  0  0  0
   25.1290    8.3410   -4.4130 N   0  0  0  0  0  0  0  0  0  0  0  0
   25.3670    7.5980   -5.5640 C   0  0  0  0  0  0  0  0  0  0  0  0
   28.8822   10.2820  -12.8157 H   0  0  0  0  0  0  0  0  0  0  0  0
   30.3163    8.3056  -12.3726 H   0  0  0  0  0  0  0  0  0  0  0  0
   29.5508    6.6475  -10.7293 H   0  0  0  0  0  0  0  0  0  0  0  0
   26.8008   10.6423  -11.4883 H   0  0  0  0  0  0  0  0  0  0  0  0
   25.2780    9.4247   -9.5676 H   0  0  0  0  0  0  0  0  0  0  0  0
   24.3957    6.4619   -8.1464 H   0  0  0  0  0  0  0  0  0  0  0  0
   23.5427    9.4201   -7.7863 H   0  0  0  0  0  0  0  0  0  0  0  0
   23.1139   10.7511   -5.7261 H   0  0  0  0  0  0  0  0  0  0  0  0
   24.1314   10.0595   -3.5622 H   0  0  0  0  0  0  0  0  0  0  0  0
   26.0058    6.7036   -5.5184 H   0  0  0  0  0  0  0  0  0  0  0  0
  1  2  2  0
  1  5  1  0
  2  3  1  0
  3  4  1  0
  4  6  1  0
  4  7  2  0
  5  6  2  0
  6  9  1  0
  7  8  1  0
  8  9  2  0
  8 10  1  0
 10 11  1  0
 11 12  2  0
 11 16  1  0
 12 13  1  0
 13 14  2  0
 14 15  1  0
 15 16  2  0
  1 17  1  0
  2 18  1  0
  3 19  1  0
  5 20  1  0
  9 21  1  0
 10 22  1  0
 12 23  1  0
 13 24  1  0
 14 25  1  0
 16 26  1  0
M  END
>  <Pose ID>  (508)
194

>  <Score>  (508)
-5.3993611335754395

>  <smiles>  (508)
c1cncc(Nc2cc3ccc[nH]c-3n2)c1

$$$$

     RDKit          3D

 35 38  0  0  0  0  0  0  0  0999 V2000
   26.7700    8.1890   -9.7900 C   0  0  0  0  0  0  0  0  0  0  0  0
   27.2720    7.0280  -10.3640 C   0  0  0  0  0  0  0  0  0  0  0  0
   28.3400    7.0940  -11.2490 N   0  0  0  0  0  0  0  0  0  0  0  0
   28.9120    8.3240  -11.5590 C   0  0  0  0  0  0  0  0  0  0  0  0
   25.6550    7.9460   -8.8790 O   0  0  0  0  0  0  0  0  0  0  0  0
   28.4070    9.4870  -10.9830 C   0  0  0  0  0  0  0  0  0  0  0  0
   27.3390    9.4170  -10.0980 C   0  0  0  0  0  0  0  0  0  0  0  0
   29.9370    8.6430  -12.3720 N   0  0  0  0  0  0  0  0  0  0  0  0
   30.1160   10.0080  -12.3450 C   0  0  0  0  0  0  0  0  0  0  0  0
   29.0900   10.3830  -11.4480 C   0  0  0  0  0  0  0  0  0  0  0  0
   25.1690    8.8860   -7.9630 C   0  0  0  0  0  0  0  0  0  0  0  0
   24.9840   10.1800   -8.4260 N   0  0  0  0  0  0  0  0  0  0  0  0
   24.5340   10.9490   -7.3700 N   0  0  0  0  0  0  0  0  0  0  0  0
   24.4310   10.1640   -6.2860 C   0  0  0  0  0  0  0  0  0  0  0  0
   24.7930    8.9240   -6.6330 C   0  0  0  0  0  0  0  0  0  0  0  0
   24.2430   12.2490   -7.4310 C   0  0  0  0  0  0  0  0  0  0  0  0
   24.3740   12.9920   -8.5990 C   0  0  0  0  0  0  0  0  0  0  0  0
   23.5060   12.7550   -6.3680 N   0  0  0  0  0  0  0  0  0  0  0  0
   23.7680   14.2380   -8.7030 C   0  0  0  0  0  0  0  0  0  0  0  0
   23.0310   14.7420   -7.6380 C   0  0  0  0  0  0  0  0  0  0  0  0
   22.9020   13.9990   -6.4710 C   0  0  0  0  0  0  0  0  0  0  0  0
   24.7910    7.7360   -5.7040 C   0  0  1  0  0  0  0  0  0  0  0  0
   26.8228    6.0547  -10.1171 H   0  0  0  0  0  0  0  0  0  0  0  0
   28.7088    6.2323  -11.6761 H   0  0  0  0  0  0  0  0  0  0  0  0
   26.9435   10.3359   -9.6406 H   0  0  0  0  0  0  0  0  0  0  0  0
   30.8516   10.6320  -12.8736 H   0  0  0  0  0  0  0  0  0  0  0  0
   28.9158   11.4360  -11.1816 H   0  0  0  0  0  0  0  0  0  0  0  0
   24.1053   10.4849   -5.2855 H   0  0  0  0  0  0  0  0  0  0  0  0
   24.9580   12.5930   -9.4415 H   0  0  0  0  0  0  0  0  0  0  0  0
   23.8715   14.8250   -9.6275 H   0  0  0  0  0  0  0  0  0  0  0  0
   22.5503   15.7281   -7.7188 H   0  0  0  0  0  0  0  0  0  0  0  0
   22.3198   14.3982   -5.6274 H   0  0  0  0  0  0  0  0  0  0  0  0
   24.7916    8.0860   -4.6612 H   0  0  0  0  0  0  0  0  0  0  0  0
   23.8918    7.1292   -5.8866 H   0  0  0  0  0  0  0  0  0  0  0  0
   25.6881    7.1262   -5.8866 H   0  0  0  0  0  0  0  0  0  0  0  0
 11  5  1  0
 11 12  2  0
 11 15  1  0
 12 13  1  0
 13 16  1  0
 13 14  1  0
 14 15  2  0
 15 22  1  0
 16 17  2  0
 16 18  1  0
 17 19  1  0
 18 21  2  0
 19 20  2  0
 20 21  1  0
  5  1  1  0
  1  2  2  0
  1  7  1  0
  2  3  1  0
  3  4  1  0
  4  8  2  0
  4  6  1  0
  6 10  1  0
  6  7  2  0
  8  9  1  0
  9 10  2  0
  2 23  1  0
  3 24  1  0
  7 25  1  0
  9 26  1  0
 10 27  1  0
 14 28  1  0
 17 29  1  0
 19 30  1  0
 20 31  1  0
 21 32  1  0
 22 33  1  1
 22 34  1  0
 22 35  1  0
M  END
>  <Pose ID>  (509)
449

>  <Score>  (509)
-5.399189472198486

>  <smiles>  (509)
Cc1cn(-c2ccccn2)nc1Oc1c[nH]c2nccc-2c1

$$$$

     RDKit          3D

 35 38  0  0  0  0  0  0  0  0999 V2000
   26.8560    7.9640   -9.7380 C   0  0  0  0  0  0  0  0  0  0  0  0
   27.3120    6.8820  -10.4780 C   0  0  0  0  0  0  0  0  0  0  0  0
   28.3410    7.0530  -11.3970 N   0  0  0  0  0  0  0  0  0  0  0  0
   28.9130    8.3080  -11.5750 C   0  0  0  0  0  0  0  0  0  0  0  0
   25.7800    7.6160   -8.8130 O   0  0  0  0  0  0  0  0  0  0  0  0
   28.4550    9.3930  -10.8310 C   0  0  0  0  0  0  0  0  0  0  0  0
   27.4280    9.2170   -9.9140 C   0  0  0  0  0  0  0  0  0  0  0  0
   29.9050    8.7180  -12.3890 N   0  0  0  0  0  0  0  0  0  0  0  0
   30.1050   10.0660  -12.1960 C   0  0  0  0  0  0  0  0  0  0  0  0
   29.1280   10.3320  -11.2110 C   0  0  0  0  0  0  0  0  0  0  0  0
   25.3510    8.4360   -7.7620 C   0  0  0  0  0  0  0  0  0  0  0  0
   25.1620    9.7800   -8.0490 N   0  0  0  0  0  0  0  0  0  0  0  0
   24.7740   10.4100   -6.8800 N   0  0  0  0  0  0  0  0  0  0  0  0
   24.7100    9.4960   -5.9040 C   0  0  0  0  0  0  0  0  0  0  0  0
   25.0370    8.3080   -6.4220 C   0  0  0  0  0  0  0  0  0  0  0  0
   24.4900   11.6760   -6.7940 C   0  0  0  0  0  0  0  0  0  0  0  0
   25.4810   12.6060   -7.0880 C   0  0  0  0  0  0  0  0  0  0  0  0
   23.2310   12.1050   -6.3940 C   0  0  0  0  0  0  0  0  0  0  0  0
   22.9600   13.4650   -6.2890 C   0  0  0  0  0  0  0  0  0  0  0  0
   25.2100   13.9650   -6.9840 N   0  0  0  0  0  0  0  0  0  0  0  0
   23.9500   14.3950   -6.5830 C   0  0  0  0  0  0  0  0  0  0  0  0
   25.0600    7.0100   -5.6530 C   0  0  1  0  0  0  0  0  0  0  0  0
   26.8593    5.8894  -10.3374 H   0  0  0  0  0  0  0  0  0  0  0  0
   28.6798    6.2501  -11.9461 H   0  0  0  0  0  0  0  0  0  0  0  0
   27.0662   10.0726   -9.3250 H   0  0  0  0  0  0  0  0  0  0  0  0
   30.8246   10.7462  -12.6750 H   0  0  0  0  0  0  0  0  0  0  0  0
   28.9823   11.3441  -10.8055 H   0  0  0  0  0  0  0  0  0  0  0  0
   24.4356    9.6893   -4.8564 H   0  0  0  0  0  0  0  0  0  0  0  0
   26.4788   12.2662   -7.4027 H   0  0  0  0  0  0  0  0  0  0  0  0
   22.4479   11.3687   -6.1602 H   0  0  0  0  0  0  0  0  0  0  0  0
   21.9624   13.8045   -5.9734 H   0  0  0  0  0  0  0  0  0  0  0  0
   23.7369   15.4708   -6.4985 H   0  0  0  0  0  0  0  0  0  0  0  0
   25.0562    7.2231   -4.5738 H   0  0  0  0  0  0  0  0  0  0  0  0
   24.1723    6.4144   -5.9123 H   0  0  0  0  0  0  0  0  0  0  0  0
   25.9683    6.4463   -5.9123 H   0  0  0  0  0  0  0  0  0  0  0  0
 11  5  1  0
 11 12  2  0
 11 15  1  0
 12 13  1  0
 13 16  1  0
 13 14  1  0
 14 15  2  0
 15 22  1  0
 16 17  2  0
 16 18  1  0
 17 20  1  0
 18 19  2  0
 19 21  1  0
 20 21  2  0
  5  1  1  0
  1  2  2  0
  1  7  1  0
  2  3  1  0
  3  4  1  0
  4  8  2  0
  4  6  1  0
  6 10  1  0
  6  7  2  0
  8  9  1  0
  9 10  2  0
  2 23  1  0
  3 24  1  0
  7 25  1  0
  9 26  1  0
 10 27  1  0
 14 28  1  0
 17 29  1  0
 18 30  1  0
 19 31  1  0
 21 32  1  0
 22 33  1  1
 22 34  1  0
 22 35  1  0
M  END
>  <Pose ID>  (510)
245

>  <Score>  (510)
-5.391107082366943

>  <smiles>  (510)
Cc1cn(-c2cccnc2)nc1Oc1c[nH]c2nccc-2c1

$$$$

     RDKit          3D

 34 37  0  0  0  0  0  0  0  0999 V2000
   27.8650    7.8530  -10.2480 C   0  0  0  0  0  0  0  0  0  0  0  0
   28.8420    7.1320  -10.9240 C   0  0  0  0  0  0  0  0  0  0  0  0
   29.6840    7.7760  -11.8210 N   0  0  0  0  0  0  0  0  0  0  0  0
   29.5510    9.1420  -12.0430 C   0  0  0  0  0  0  0  0  0  0  0  0
   27.0700    7.0330   -9.3380 O   0  0  0  0  0  0  0  0  0  0  0  0
   28.5710    9.8640  -11.3680 C   0  0  0  0  0  0  0  0  0  0  0  0
   27.7320    9.2180  -10.4700 C   0  0  0  0  0  0  0  0  0  0  0  0
   30.2350    9.9770  -12.8500 N   0  0  0  0  0  0  0  0  0  0  0  0
   29.7150   11.2450  -12.7190 C   0  0  0  0  0  0  0  0  0  0  0  0
   28.6930   11.0060  -11.7740 C   0  0  0  0  0  0  0  0  0  0  0  0
   26.2350    7.5520   -8.3400 C   0  0  0  0  0  0  0  0  0  0  0  0
   25.4080    8.6030   -8.6930 N   0  0  0  0  0  0  0  0  0  0  0  0
   24.7270    8.9610   -7.5960 N   0  0  0  0  0  0  0  0  0  0  0  0
   25.0560    8.1610   -6.5090 C   0  0  0  0  0  0  0  0  0  0  0  0
   25.9680    7.3170   -7.0030 C   0  0  0  0  0  0  0  0  0  0  0  0
   23.7800    9.9680   -7.4550 C   0  0  0  0  0  0  0  0  0  0  0  0
   23.1610   10.1750   -6.2280 N   0  0  0  0  0  0  0  0  0  0  0  0
   23.4900    9.3740   -5.1400 C   0  0  0  0  0  0  0  0  0  0  0  0
   24.4370    8.3670   -5.2800 C   0  0  0  0  0  0  0  0  0  0  0  0
   22.8180    9.5980   -3.8080 C   0  0  1  0  0  0  0  0  0  0  0  0
   21.9700   10.8860   -3.7890 C   0  0  1  0  0  0  0  0  0  0  0  0
   28.9483    6.0513  -10.7485 H   0  0  0  0  0  0  0  0  0  0  0  0
   30.4077    7.2413  -12.3223 H   0  0  0  0  0  0  0  0  0  0  0  0
   26.9599    9.7884   -9.9329 H   0  0  0  0  0  0  0  0  0  0  0  0
   30.0123   12.1821  -13.2123 H   0  0  0  0  0  0  0  0  0  0  0  0
   28.0366   11.8148  -11.4205 H   0  0  0  0  0  0  0  0  0  0  0  0
   26.4516    6.5248   -6.4126 H   0  0  0  0  0  0  0  0  0  0  0  0
   23.5200   10.6020   -8.3155 H   0  0  0  0  0  0  0  0  0  0  0  0
   24.6973    7.7329   -4.4197 H   0  0  0  0  0  0  0  0  0  0  0  0
   22.1634    8.7404   -3.5935 H   0  0  0  0  0  0  0  0  0  0  0  0
   23.6057    9.7027   -3.0473 H   0  0  0  0  0  0  0  0  0  0  0  0
   21.7754   11.1816   -2.7475 H   0  0  0  0  0  0  0  0  0  0  0  0
   22.5150   11.6915   -4.3030 H   0  0  0  0  0  0  0  0  0  0  0  0
   21.0147   10.7037   -4.3030 H   0  0  0  0  0  0  0  0  0  0  0  0
  5  1  1  0
  5 11  1  0
  1  2  2  0
  1  7  1  0
  2  3  1  0
  3  4  1  0
  4  8  2  0
  4  6  1  0
  6 10  1  0
  6  7  2  0
  8  9  1  0
  9 10  2  0
 11 12  2  0
 11 15  1  0
 12 13  1  0
 13 16  1  0
 13 14  1  0
 14 15  2  0
 14 19  1  0
 16 17  2  0
 17 18  1  0
 18 19  2  0
 18 20  1  0
 20 21  1  0
  2 22  1  0
  3 23  1  0
  7 24  1  0
  9 25  1  0
 10 26  1  0
 15 27  1  0
 16 28  1  0
 19 29  1  0
 20 30  1  1
 20 31  1  0
 21 32  1  1
 21 33  1  0
 21 34  1  0
M  END
>  <Pose ID>  (511)
292

>  <Score>  (511)
-5.388309001922607

>  <smiles>  (511)
CCc1cc2cc(Oc3c[nH]c4nccc-4c3)nn2cn1

$$$$

     RDKit          3D

 37 39  0  0  0  0  0  0  0  0999 V2000
   27.8410    7.8780   -9.8120 C   0  0  0  0  0  0  0  0  0  0  0  0
   26.9440    6.8200   -9.8140 N   0  0  0  0  0  0  0  0  0  0  0  0
   26.1740    6.5550   -8.6890 C   0  0  0  0  0  0  0  0  0  0  0  0
   27.9670    8.6770   -8.6770 N   0  0  0  0  0  0  0  0  0  0  0  0
   26.3030    7.3530   -7.5560 C   0  0  0  0  0  0  0  0  0  0  0  0
   27.1160    8.3930   -7.5450 C   0  0  0  0  0  0  0  0  0  0  0  0
   28.5320    8.1170  -10.8180 O   0  0  0  0  0  0  0  0  0  0  0  0
   25.5730    7.0530   -6.4310 N   0  0  0  0  0  0  0  0  0  0  0  0
   24.2990    7.5790   -6.1250 C   0  0  0  0  0  0  0  0  0  0  0  0
   23.1730    6.8270   -5.8070 N   0  0  0  0  0  0  0  0  0  0  0  0
   21.9720    7.4650   -5.5190 C   0  0  0  0  0  0  0  0  0  0  0  0
   21.8980    8.8530   -5.5470 C   0  0  0  0  0  0  0  0  0  0  0  0
   23.0240    9.6030   -5.8630 C   0  0  0  0  0  0  0  0  0  0  0  0
   24.2310    8.9620   -6.1250 C   0  0  0  0  0  0  0  0  0  0  0  0
   20.5890    9.2500   -5.2200 C   0  0  0  0  0  0  0  0  0  0  0  0
   19.4500    8.8910   -5.7010 N   0  0  0  0  0  0  0  0  0  0  0  0
   18.4960    9.5920   -4.9480 O   0  0  0  0  0  0  0  0  0  0  0  0
   20.4170   10.2310   -4.1030 C   0  0  0  0  0  0  0  0  0  0  0  0
   18.9260   10.3700   -4.0870 C   0  0  0  0  0  0  0  0  0  0  0  0
   18.1100   11.2770   -3.1980 C   0  0  1  0  0  0  0  0  0  0  0  0
   21.4560   10.8940   -3.2340 C   0  0  1  0  0  0  0  0  0  0  0  0
   22.9390   11.1090   -5.9210 C   0  0  1  0  0  0  0  0  0  0  0  0
   25.4631    5.7156   -8.6934 H   0  0  0  0  0  0  0  0  0  0  0  0
   28.6483    9.4489   -8.6463 H   0  0  0  0  0  0  0  0  0  0  0  0
   27.1457    9.0507   -6.6638 H   0  0  0  0  0  0  0  0  0  0  0  0
   25.9878    6.3926   -5.7582 H   0  0  0  0  0  0  0  0  0  0  0  0
   21.0802    6.8716   -5.2689 H   0  0  0  0  0  0  0  0  0  0  0  0
   25.1335    9.5556   -6.3327 H   0  0  0  0  0  0  0  0  0  0  0  0
   18.3203   11.0433   -2.1439 H   0  0  0  0  0  0  0  0  0  0  0  0
   18.3753   12.3250   -3.4012 H   0  0  0  0  0  0  0  0  0  0  0  0
   17.0399   11.1236   -3.4012 H   0  0  0  0  0  0  0  0  0  0  0  0
   21.2048   10.7337   -2.1751 H   0  0  0  0  0  0  0  0  0  0  0  0
   22.4436   10.4588   -3.4465 H   0  0  0  0  0  0  0  0  0  0  0  0
   21.4774   11.9731   -3.4465 H   0  0  0  0  0  0  0  0  0  0  0  0
   22.9161   11.5146   -4.8988 H   0  0  0  0  0  0  0  0  0  0  0  0
   23.8162   11.5055   -6.4533 H   0  0  0  0  0  0  0  0  0  0  0  0
   22.0228   11.4043   -6.4533 H   0  0  0  0  0  0  0  0  0  0  0  0
  8  5  1  0
  8  9  1  0
  9 14  1  0
  9 10  2  0
 10 11  1  0
 11 12  2  0
 12 13  1  0
 12 15  1  0
 13 14  2  0
 13 22  1  0
  1  7  2  0
  1  2  1  0
  1  4  1  0
  2  3  2  0
  3  5  1  0
  4  6  1  0
  5  6  2  0
 15 16  2  0
 15 18  1  0
 16 17  1  0
 17 19  1  0
 18 19  2  0
 18 21  1  0
 19 20  1  0
  3 23  1  0
  4 24  1  0
  6 25  1  0
  8 26  1  0
 11 27  1  0
 14 28  1  0
 20 29  1  1
 20 30  1  0
 20 31  1  0
 21 32  1  1
 21 33  1  0
 21 34  1  0
 22 35  1  1
 22 36  1  0
 22 37  1  0
M  END
>  <Pose ID>  (512)
123

>  <Score>  (512)
-5.388214111328125

>  <smiles>  (512)
Cc1cc(Nc2cnc(=O)[nH]c2)ncc1-c1noc(C)c1C

$$$$

     RDKit          3D

 34 37  0  0  0  0  0  0  0  0999 V2000
   27.8940    7.8570  -10.2830 C   0  0  0  0  0  0  0  0  0  0  0  0
   28.8510    7.1320  -10.9810 C   0  0  0  0  0  0  0  0  0  0  0  0
   29.7010    7.7780  -11.8700 N   0  0  0  0  0  0  0  0  0  0  0  0
   29.5940    9.1510  -12.0630 C   0  0  0  0  0  0  0  0  0  0  0  0
   27.0880    7.0360   -9.3870 O   0  0  0  0  0  0  0  0  0  0  0  0
   28.6330    9.8770  -11.3640 C   0  0  0  0  0  0  0  0  0  0  0  0
   27.7860    9.2300  -10.4750 C   0  0  0  0  0  0  0  0  0  0  0  0
   30.2910    9.9890  -12.8560 N   0  0  0  0  0  0  0  0  0  0  0  0
   29.7960   11.2640  -12.6940 C   0  0  0  0  0  0  0  0  0  0  0  0
   28.7750   11.0240  -11.7480 C   0  0  0  0  0  0  0  0  0  0  0  0
   26.2690    7.5480   -8.3710 C   0  0  0  0  0  0  0  0  0  0  0  0
   25.4600    8.6230   -8.6990 N   0  0  0  0  0  0  0  0  0  0  0  0
   24.8030    8.9680   -7.6150 N   0  0  0  0  0  0  0  0  0  0  0  0
   25.0750    8.1930   -6.4950 C   0  0  0  0  0  0  0  0  0  0  0  0
   26.0040    7.2900   -7.0380 C   0  0  0  0  0  0  0  0  0  0  0  0
   23.8840   10.0080   -7.5320 C   0  0  0  0  0  0  0  0  0  0  0  0
   23.2380   10.2720   -6.3320 C   0  0  0  0  0  0  0  0  0  0  0  0
   23.5110    9.4960   -5.2110 C   0  0  0  0  0  0  0  0  0  0  0  0
   24.4290    8.4560   -5.2920 N   0  0  0  0  0  0  0  0  0  0  0  0
   30.2250   12.5550  -13.3460 C   0  0  1  0  0  0  0  0  0  0  0  0
   22.8110    9.7840   -3.9050 C   0  0  1  0  0  0  0  0  0  0  0  0
   28.9360    6.0458  -10.8299 H   0  0  0  0  0  0  0  0  0  0  0  0
   30.4110    7.2395  -12.3866 H   0  0  0  0  0  0  0  0  0  0  0  0
   27.0283    9.8041   -9.9216 H   0  0  0  0  0  0  0  0  0  0  0  0
   28.1359   11.8376  -11.3744 H   0  0  0  0  0  0  0  0  0  0  0  0
   26.4678    6.4712   -6.4683 H   0  0  0  0  0  0  0  0  0  0  0  0
   23.6685   10.6225   -8.4185 H   0  0  0  0  0  0  0  0  0  0  0  0
   22.5105   11.0946   -6.2680 H   0  0  0  0  0  0  0  0  0  0  0  0
   30.4706   13.2941  -12.5692 H   0  0  0  0  0  0  0  0  0  0  0  0
   31.1109   12.3729  -13.9721 H   0  0  0  0  0  0  0  0  0  0  0  0
   29.4063   12.9393  -13.9721 H   0  0  0  0  0  0  0  0  0  0  0  0
   23.4708    9.5126   -3.0677 H   0  0  0  0  0  0  0  0  0  0  0  0
   22.5678   10.8553   -3.8478 H   0  0  0  0  0  0  0  0  0  0  0  0
   21.8843    9.1941   -3.8478 H   0  0  0  0  0  0  0  0  0  0  0  0
  1  2  2  0
  1  7  1  0
  1  5  1  0
  2  3  1  0
  3  4  1  0
  4  8  2  0
  4  6  1  0
  6 10  1  0
  6  7  2  0
  8  9  1  0
  9 20  1  0
  9 10  2  0
  5 11  1  0
 11 12  2  0
 11 15  1  0
 12 13  1  0
 13 16  1  0
 13 14  1  0
 14 15  2  0
 14 19  1  0
 16 17  2  0
 17 18  1  0
 18 19  2  0
 18 21  1  0
  2 22  1  0
  3 23  1  0
  7 24  1  0
 10 25  1  0
 15 26  1  0
 16 27  1  0
 17 28  1  0
 20 29  1  1
 20 30  1  0
 20 31  1  0
 21 32  1  1
 21 33  1  0
 21 34  1  0
M  END
>  <Pose ID>  (513)
361

>  <Score>  (513)
-5.3870954513549805

>  <smiles>  (513)
Cc1cc2cc(Oc3cc4nc(C)ccn4n3)c[nH]c-2n1

$$$$

     RDKit          3D

 38 41  0  0  0  0  0  0  0  0999 V2000
   27.9010    7.8750  -10.4030 C   0  0  0  0  0  0  0  0  0  0  0  0
   28.7100    7.0940  -11.2220 C   0  0  0  0  0  0  0  0  0  0  0  0
   29.6000    7.7010  -12.0990 N   0  0  0  0  0  0  0  0  0  0  0  0
   29.6850    9.0850  -12.1590 C   0  0  0  0  0  0  0  0  0  0  0  0
   27.0310    7.0880   -9.5330 O   0  0  0  0  0  0  0  0  0  0  0  0
   28.8740    9.8670  -11.3410 C   0  0  0  0  0  0  0  0  0  0  0  0
   27.9850    9.2610  -10.4630 C   0  0  0  0  0  0  0  0  0  0  0  0
   30.4560    9.8910  -12.9160 N   0  0  0  0  0  0  0  0  0  0  0  0
   30.1590   11.2020  -12.6090 C   0  0  0  0  0  0  0  0  0  0  0  0
   29.1620   11.0140  -11.6270 C   0  0  0  0  0  0  0  0  0  0  0  0
   26.3450    7.6080   -8.4300 C   0  0  0  0  0  0  0  0  0  0  0  0
   25.6860    8.8150   -8.6060 N   0  0  0  0  0  0  0  0  0  0  0  0
   25.1080    9.1630   -7.4020 N   0  0  0  0  0  0  0  0  0  0  0  0
   25.3850    8.2050   -6.5030 C   0  0  0  0  0  0  0  0  0  0  0  0
   26.1110    7.2620   -7.1100 C   0  0  0  0  0  0  0  0  0  0  0  0
   24.3680   10.2880   -7.1780 C   0  0  0  0  0  0  0  0  0  0  0  0
   24.1310   11.2210   -8.1810 C   0  0  0  0  0  0  0  0  0  0  0  0
   23.4060   12.3730   -7.9010 N   0  0  0  0  0  0  0  0  0  0  0  0
   23.8790   10.5070   -5.8960 C   0  0  0  0  0  0  0  0  0  0  0  0
   23.1560   11.6590   -5.6150 C   0  0  0  0  0  0  0  0  0  0  0  0
   22.9240   12.5920   -6.6270 C   0  0  0  0  0  0  0  0  0  0  0  0
   22.6230   11.9000   -4.2240 C   0  0  1  0  0  0  0  0  0  0  0  0
   28.4820   12.1860  -10.9620 C   0  0  1  0  0  0  0  0  0  0  0  0
   28.6450    5.9969  -11.1752 H   0  0  0  0  0  0  0  0  0  0  0  0
   30.1982    7.1227  -12.7061 H   0  0  0  0  0  0  0  0  0  0  0  0
   27.3465    9.8787   -9.8143 H   0  0  0  0  0  0  0  0  0  0  0  0
   30.5806   12.1333  -13.0152 H   0  0  0  0  0  0  0  0  0  0  0  0
   25.0690    8.1978   -5.4494 H   0  0  0  0  0  0  0  0  0  0  0  0
   26.4718    6.3409   -6.6290 H   0  0  0  0  0  0  0  0  0  0  0  0
   24.5173   11.0474   -9.1962 H   0  0  0  0  0  0  0  0  0  0  0  0
   24.0646    9.7675   -5.1031 H   0  0  0  0  0  0  0  0  0  0  0  0
   22.3538   13.5067   -6.4075 H   0  0  0  0  0  0  0  0  0  0  0  0
   23.3646   11.5647   -3.4840 H   0  0  0  0  0  0  0  0  0  0  0  0
   22.4280   12.9739   -4.0870 H   0  0  0  0  0  0  0  0  0  0  0  0
   21.6879   11.3371   -4.0870 H   0  0  0  0  0  0  0  0  0  0  0  0
   28.5461   12.0755   -9.8694 H   0  0  0  0  0  0  0  0  0  0  0  0
   28.9790   13.1191  -11.2660 H   0  0  0  0  0  0  0  0  0  0  0  0
   27.4253   12.2176  -11.2660 H   0  0  0  0  0  0  0  0  0  0  0  0
  5  1  1  0
  5 11  1  0
  1  2  2  0
  1  7  1  0
  2  3  1  0
  3  4  1  0
  4  8  2  0
  4  6  1  0
  6 10  1  0
  6  7  2  0
  8  9  1  0
  9 10  2  0
 10 23  1  0
 11 12  2  0
 11 15  1  0
 12 13  1  0
 13 16  1  0
 13 14  1  0
 14 15  2  0
 16 17  2  0
 16 19  1  0
 17 18  1  0
 18 21  2  0
 19 20  2  0
 20 21  1  0
 20 22  1  0
  2 24  1  0
  3 25  1  0
  7 26  1  0
  9 27  1  0
 14 28  1  0
 15 29  1  0
 17 30  1  0
 19 31  1  0
 21 32  1  0
 22 33  1  1
 22 34  1  0
 22 35  1  0
 23 36  1  1
 23 37  1  0
 23 38  1  0
M  END
>  <Pose ID>  (514)
438

>  <Score>  (514)
-5.386767387390137

>  <smiles>  (514)
Cc1cncc(-n2ccc(Oc3c[nH]c4ncc(C)c-4c3)n2)c1

$$$$

     RDKit          3D

 19 20  0  0  0  0  0  0  0  0999 V2000
   28.2260    9.8380  -11.2600 C   0  0  0  0  0  0  0  0  0  0  0  0
   28.9190    8.6400  -11.3860 C   0  0  0  0  0  0  0  0  0  0  0  0
   28.5070    7.4740  -10.7110 N   0  0  0  0  0  0  0  0  0  0  0  0
   27.0420    9.8290  -10.5430 N   0  0  0  0  0  0  0  0  0  0  0  0
   26.5920    8.6840   -9.8960 C   0  0  0  0  0  0  0  0  0  0  0  0
   27.3250    7.5070   -9.9790 C   0  0  0  0  0  0  0  0  0  0  0  0
   26.9250    6.4810   -9.3990 O   0  0  0  0  0  0  0  0  0  0  0  0
   30.0690    8.5800  -12.1640 N   0  0  0  0  0  0  0  0  0  0  0  0
   30.5250    9.7180  -12.8160 C   0  0  0  0  0  0  0  0  0  0  0  0
   29.8320   10.9170  -12.6910 C   0  0  0  0  0  0  0  0  0  0  0  0
   28.6800   10.9700  -11.9000 C   0  0  0  0  0  0  0  0  0  0  0  0
   25.3090    8.7200   -9.1030 C   0  0  1  0  0  0  0  0  0  0  0  0
   29.0707    6.6132  -10.7588 H   0  0  0  0  0  0  0  0  0  0  0  0
   31.4352    9.6710  -13.4319 H   0  0  0  0  0  0  0  0  0  0  0  0
   30.1878   11.8185  -13.2112 H   0  0  0  0  0  0  0  0  0  0  0  0
   28.1347   11.9188  -11.7886 H   0  0  0  0  0  0  0  0  0  0  0  0
   25.5421    8.7135   -8.0280 H   0  0  0  0  0  0  0  0  0  0  0  0
   24.7499    9.6342   -9.3514 H   0  0  0  0  0  0  0  0  0  0  0  0
   24.6996    7.8386   -9.3514 H   0  0  0  0  0  0  0  0  0  0  0  0
  1 11  1  0
  1  2  2  0
  1  4  1  0
  2  8  1  0
  2  3  1  0
  3  6  1  0
  4  5  2  0
  5  6  1  0
  5 12  1  0
  6  7  2  0
  8  9  2  0
  9 10  1  0
 10 11  2  0
  3 13  1  0
  9 14  1  0
 10 15  1  0
 11 16  1  0
 12 17  1  1
 12 18  1  0
 12 19  1  0
M  END
>  <Pose ID>  (515)
144

>  <Score>  (515)
-5.386647701263428

>  <smiles>  (515)
Cc1nc2cccnc2[nH]c1=O

$$$$

     RDKit          3D

 37 39  0  0  0  0  0  0  0  0999 V2000
   27.7970    7.8900   -9.6920 C   0  0  0  0  0  0  0  0  0  0  0  0
   26.9560    6.7880   -9.6530 N   0  0  0  0  0  0  0  0  0  0  0  0
   26.1690    6.5500   -8.5330 C   0  0  0  0  0  0  0  0  0  0  0  0
   27.8520    8.7600   -8.6050 N   0  0  0  0  0  0  0  0  0  0  0  0
   26.2270    7.4190   -7.4480 C   0  0  0  0  0  0  0  0  0  0  0  0
   26.9860    8.4980   -7.4790 C   0  0  0  0  0  0  0  0  0  0  0  0
   28.5030    8.1040  -10.6940 O   0  0  0  0  0  0  0  0  0  0  0  0
   25.4830    7.1480   -6.3250 N   0  0  0  0  0  0  0  0  0  0  0  0
   24.1750    7.6240   -6.0820 C   0  0  0  0  0  0  0  0  0  0  0  0
   23.0810    6.8350   -5.7470 N   0  0  0  0  0  0  0  0  0  0  0  0
   21.8410    7.4250   -5.5270 C   0  0  0  0  0  0  0  0  0  0  0  0
   21.6990    8.8040   -5.6400 C   0  0  0  0  0  0  0  0  0  0  0  0
   22.7930    9.5910   -5.9730 C   0  0  0  0  0  0  0  0  0  0  0  0
   24.0380    8.9990   -6.1670 C   0  0  0  0  0  0  0  0  0  0  0  0
   20.3620    9.1500   -5.3700 C   0  0  0  0  0  0  0  0  0  0  0  0
   19.2570    8.7050   -5.8560 N   0  0  0  0  0  0  0  0  0  0  0  0
   18.2480    9.3990   -5.1690 O   0  0  0  0  0  0  0  0  0  0  0  0
   20.1100   10.1850   -4.3170 C   0  0  0  0  0  0  0  0  0  0  0  0
   18.6150   10.2470   -4.3470 C   0  0  0  0  0  0  0  0  0  0  0  0
   17.7300   11.1610   -3.5340 C   0  0  1  0  0  0  0  0  0  0  0  0
   17.6920   10.5270   -2.1430 C   0  0  1  0  0  0  0  0  0  0  0  0
   18.1460   12.6200   -3.6560 C   0  0  1  0  0  0  0  0  0  0  0  0
   25.5014    5.6762   -8.5042 H   0  0  0  0  0  0  0  0  0  0  0  0
   28.4920    9.5670   -8.6044 H   0  0  0  0  0  0  0  0  0  0  0  0
   26.9589    9.2061   -6.6377 H   0  0  0  0  0  0  0  0  0  0  0  0
   25.9125    6.5511   -5.6038 H   0  0  0  0  0  0  0  0  0  0  0  0
   20.9736    6.8018   -5.2639 H   0  0  0  0  0  0  0  0  0  0  0  0
   22.6765   10.6792   -6.0833 H   0  0  0  0  0  0  0  0  0  0  0  0
   24.9149    9.6252   -6.3883 H   0  0  0  0  0  0  0  0  0  0  0  0
   20.8247   10.7438   -3.6949 H   0  0  0  0  0  0  0  0  0  0  0  0
   16.6938   11.2372   -3.8953 H   0  0  0  0  0  0  0  0  0  0  0  0
   17.7393   11.3167   -1.3787 H   0  0  0  0  0  0  0  0  0  0  0  0
   16.7581    9.9579   -2.0248 H   0  0  0  0  0  0  0  0  0  0  0  0
   18.5512    9.8504   -2.0248 H   0  0  0  0  0  0  0  0  0  0  0  0
   18.2690   13.0514   -2.6516 H   0  0  0  0  0  0  0  0  0  0  0  0
   19.0985   12.6852   -4.2023 H   0  0  0  0  0  0  0  0  0  0  0  0
   17.3711   13.1778   -4.2023 H   0  0  0  0  0  0  0  0  0  0  0  0
  8  5  1  0
  8  9  1  0
  9 14  1  0
  9 10  2  0
 10 11  1  0
 11 12  2  0
 12 13  1  0
 12 15  1  0
 13 14  2  0
  1  7  2  0
  1  2  1  0
  1  4  1  0
  2  3  2  0
  3  5  1  0
  4  6  1  0
  5  6  2  0
 15 16  2  0
 15 18  1  0
 16 17  1  0
 17 19  1  0
 18 19  2  0
 19 20  1  0
 20 22  1  0
 20 21  1  0
  3 23  1  0
  4 24  1  0
  6 25  1  0
  8 26  1  0
 11 27  1  0
 13 28  1  0
 14 29  1  0
 18 30  1  0
 20 31  1  6
 21 32  1  1
 21 33  1  0
 21 34  1  0
 22 35  1  1
 22 36  1  0
 22 37  1  0
M  END
>  <Pose ID>  (516)
125

>  <Score>  (516)
-5.384335994720459

>  <smiles>  (516)
CC(C)c1cc(-c2ccc(Nc3cnc(=O)[nH]c3)nc2)no1

$$$$

     RDKit          3D

 31 33  0  0  0  0  0  0  0  0999 V2000
   26.1830    7.5510   -8.2050 C   0  0  0  0  0  0  0  0  0  0  0  0
   27.0680    7.4150   -9.2520 N   0  0  0  0  0  0  0  0  0  0  0  0
   27.4410    8.5510   -9.9610 C   0  0  0  0  0  0  0  0  0  0  0  0
   25.7790    8.8400   -7.8760 C   0  0  0  0  0  0  0  0  0  0  0  0
   26.9310    9.7930   -9.6020 C   0  0  0  0  0  0  0  0  0  0  0  0
   26.1130    9.9170   -8.5040 C   0  0  0  0  0  0  0  0  0  0  0  0
   25.7440    6.4700   -7.4490 C   0  0  0  0  0  0  0  0  0  0  0  0
   24.8990    6.6780   -6.3650 C   0  0  0  0  0  0  0  0  0  0  0  0
   24.4940    7.9680   -6.0360 C   0  0  0  0  0  0  0  0  0  0  0  0
   24.9350    9.0490   -6.7930 C   0  0  0  0  0  0  0  0  0  0  0  0
   28.3130    8.4440  -11.0170 N   0  0  0  0  0  0  0  0  0  0  0  0
   28.8100    9.5020  -11.7350 C   0  0  0  0  0  0  0  0  0  0  0  0
   30.1800    9.5480  -11.9690 C   0  0  0  0  0  0  0  0  0  0  0  0
   30.7200   10.5770  -12.7320 C   0  0  0  0  0  0  0  0  0  0  0  0
   29.8910   11.5590  -13.2610 C   0  0  0  0  0  0  0  0  0  0  0  0
   28.5210   11.5130  -13.0270 N   0  0  0  0  0  0  0  0  0  0  0  0
   27.9560   10.4920  -12.2910 C   0  0  0  0  0  0  0  0  0  0  0  0
   23.5770    8.1940   -4.8600 C   0  0  1  0  0  0  0  0  0  0  0  0
   27.1832   10.6815  -10.1995 H   0  0  0  0  0  0  0  0  0  0  0  0
   25.7547   10.9024   -8.1714 H   0  0  0  0  0  0  0  0  0  0  0  0
   26.0652    5.4505   -7.7085 H   0  0  0  0  0  0  0  0  0  0  0  0
   24.5505    5.8229   -5.7673 H   0  0  0  0  0  0  0  0  0  0  0  0
   24.6152   10.0690   -6.5337 H   0  0  0  0  0  0  0  0  0  0  0  0
   28.6165    7.4984  -11.2902 H   0  0  0  0  0  0  0  0  0  0  0  0
   30.8361    8.7705  -11.5506 H   0  0  0  0  0  0  0  0  0  0  0  0
   31.8037   10.6140  -12.9171 H   0  0  0  0  0  0  0  0  0  0  0  0
   30.3186   12.3729  -13.8650 H   0  0  0  0  0  0  0  0  0  0  0  0
   26.8677   10.4454  -12.1379 H   0  0  0  0  0  0  0  0  0  0  0  0
   24.1392    8.0554   -3.9247 H   0  0  0  0  0  0  0  0  0  0  0  0
   23.1764    9.2177   -4.8988 H   0  0  0  0  0  0  0  0  0  0  0  0
   22.7466    7.4736   -4.8988 H   0  0  0  0  0  0  0  0  0  0  0  0
  1  2  2  0
  1  4  1  0
  1  7  1  0
  2  3  1  0
  3 11  1  0
  3  5  2  0
  4  6  2  0
  4 10  1  0
  5  6  1  0
  7  8  2  0
  8  9  1  0
  9 10  2  0
  9 18  1  0
 11 12  1  0
 12 17  1  0
 12 13  2  0
 13 14  1  0
 14 15  2  0
 15 16  1  0
 16 17  2  0
  5 19  1  0
  6 20  1  0
  7 21  1  0
  8 22  1  0
 10 23  1  0
 11 24  1  0
 13 25  1  0
 14 26  1  0
 15 27  1  0
 17 28  1  0
 18 29  1  1
 18 30  1  0
 18 31  1  0
M  END
>  <Pose ID>  (517)
90

>  <Score>  (517)
-5.37168550491333

>  <smiles>  (517)
Cc1ccc2nc(Nc3cccnc3)ccc2c1

$$$$

     RDKit          3D

 38 41  0  0  0  0  0  0  0  0999 V2000
   27.3250    8.3870   -9.2150 C   0  0  0  0  0  0  0  0  0  0  0  0
   26.5870    7.6820   -8.2750 N   0  0  0  0  0  0  0  0  0  0  0  0
   25.7810    8.3640   -7.3710 C   0  0  0  0  0  0  0  0  0  0  0  0
   25.1180    7.5900   -6.4570 C   0  0  0  0  0  0  0  0  0  0  0  0
   24.2760    8.1670   -5.5150 N   0  0  0  0  0  0  0  0  0  0  0  0
   24.1070    9.5460   -5.4850 C   0  0  0  0  0  0  0  0  0  0  0  0
   24.7800   10.3500   -6.4000 C   0  0  0  0  0  0  0  0  0  0  0  0
   25.7140    9.7510   -7.4070 C   0  0  0  0  0  0  0  0  0  0  0  0
   27.2600    9.7760   -9.2520 C   0  0  0  0  0  0  0  0  0  0  0  0
   26.4540   10.4570   -8.3490 C   0  0  0  0  0  0  0  0  0  0  0  0
   28.1790    7.9530  -10.1990 N   0  0  0  0  0  0  0  0  0  0  0  0
   28.8840    8.5890  -11.0480 C   0  0  0  0  0  0  0  0  0  0  0  0
   30.2840    8.6140  -11.1400 N   0  0  0  0  0  0  0  0  0  0  0  0
   30.5760    9.4250  -12.1630 O   0  0  0  0  0  0  0  0  0  0  0  0
   29.5130    9.8920  -12.7160 C   0  0  0  0  0  0  0  0  0  0  0  0
   28.4080    9.3550  -12.0570 C   0  0  0  0  0  0  0  0  0  0  0  0
   23.2520   10.1280   -4.5340 C   0  0  0  0  0  0  0  0  0  0  0  0
   22.5360    9.6420   -3.5530 N   0  0  0  0  0  0  0  0  0  0  0  0
   23.0890   11.5070   -4.5100 C   0  0  0  0  0  0  0  0  0  0  0  0
   21.8840   10.6340   -2.9370 C   0  0  0  0  0  0  0  0  0  0  0  0
   22.3030   11.8990   -3.6270 C   0  0  0  0  0  0  0  0  0  0  0  0
   21.8760   13.3130   -3.3220 C   0  0  1  0  0  0  0  0  0  0  0  0
   25.3030    6.0920   -6.4730 C   0  0  1  0  0  0  0  0  0  0  0  0
   24.6244   11.4388   -6.3838 H   0  0  0  0  0  0  0  0  0  0  0  0
   27.8467   10.3347   -9.9961 H   0  0  0  0  0  0  0  0  0  0  0  0
   26.4010   11.5553   -8.3790 H   0  0  0  0  0  0  0  0  0  0  0  0
   28.2649    6.9285  -10.2618 H   0  0  0  0  0  0  0  0  0  0  0  0
   29.4811   10.5937  -13.5625 H   0  0  0  0  0  0  0  0  0  0  0  0
   27.3504    9.5221  -12.3092 H   0  0  0  0  0  0  0  0  0  0  0  0
   22.4825    8.6465   -3.2943 H   0  0  0  0  0  0  0  0  0  0  0  0
   23.6044   12.1874   -5.2039 H   0  0  0  0  0  0  0  0  0  0  0  0
   21.1824   10.5414   -2.0948 H   0  0  0  0  0  0  0  0  0  0  0  0
   21.8328   13.4560   -2.2322 H   0  0  0  0  0  0  0  0  0  0  0  0
   22.6017   14.0168   -3.7557 H   0  0  0  0  0  0  0  0  0  0  0  0
   20.8821   13.4975   -3.7557 H   0  0  0  0  0  0  0  0  0  0  0  0
   25.3493    5.7172   -5.4399 H   0  0  0  0  0  0  0  0  0  0  0  0
   24.4559    5.6235   -6.9954 H   0  0  0  0  0  0  0  0  0  0  0  0
   26.2386    5.8437   -6.9954 H   0  0  0  0  0  0  0  0  0  0  0  0
  1 11  1  0
  1  9  1  0
  1  2  2  0
  2  3  1  0
  3  8  2  0
  3  4  1  0
  4 23  1  0
  4  5  2  0
  5  6  1  0
  6  7  2  0
  6 17  1  0
  7  8  1  0
  8 10  1  0
  9 10  2  0
 11 12  1  0
 12 16  1  0
 12 13  2  0
 13 14  1  0
 14 15  1  0
 15 16  2  0
 17 19  2  0
 17 18  1  0
 18 20  1  0
 19 21  1  0
 20 21  2  0
 21 22  1  0
  7 24  1  0
  9 25  1  0
 10 26  1  0
 11 27  1  0
 15 28  1  0
 16 29  1  0
 18 30  1  0
 19 31  1  0
 20 32  1  0
 22 33  1  1
 22 34  1  0
 22 35  1  0
 23 36  1  1
 23 37  1  0
 23 38  1  0
M  END
>  <Pose ID>  (518)
36

>  <Score>  (518)
-5.365898609161377

>  <smiles>  (518)
Cc1c[nH]c(-c2cc3ccc(Nc4ccon4)nc3c(C)n2)c1

$$$$

     RDKit          3D

 35 38  0  0  0  0  0  0  0  0999 V2000
   26.8830    8.3040   -9.6730 C   0  0  0  0  0  0  0  0  0  0  0  0
   27.4100    7.1700  -10.2800 C   0  0  0  0  0  0  0  0  0  0  0  0
   28.4190    7.2920  -11.2260 N   0  0  0  0  0  0  0  0  0  0  0  0
   28.9090    8.5500  -11.5640 C   0  0  0  0  0  0  0  0  0  0  0  0
   25.8380    8.0030   -8.7000 O   0  0  0  0  0  0  0  0  0  0  0  0
   28.3790    9.6850  -10.9550 C   0  0  0  0  0  0  0  0  0  0  0  0
   27.3700    9.5590  -10.0090 C   0  0  0  0  0  0  0  0  0  0  0  0
   29.8660    8.9210  -12.4340 N   0  0  0  0  0  0  0  0  0  0  0  0
   29.9770   10.2940  -12.4130 C   0  0  0  0  0  0  0  0  0  0  0  0
   28.9880   10.6150  -11.4560 C   0  0  0  0  0  0  0  0  0  0  0  0
   25.3590    8.9170   -7.7530 C   0  0  0  0  0  0  0  0  0  0  0  0
   25.0810   10.2000   -8.2000 N   0  0  0  0  0  0  0  0  0  0  0  0
   24.6550   10.9440   -7.1160 N   0  0  0  0  0  0  0  0  0  0  0  0
   24.6560   10.1540   -6.0320 C   0  0  0  0  0  0  0  0  0  0  0  0
   25.0600    8.9350   -6.4030 C   0  0  0  0  0  0  0  0  0  0  0  0
   24.2950   12.2280   -7.1550 C   0  0  0  0  0  0  0  0  0  0  0  0
   24.3200   12.9770   -8.3260 C   0  0  0  0  0  0  0  0  0  0  0  0
   23.5970   12.6940   -6.0490 N   0  0  0  0  0  0  0  0  0  0  0  0
   23.6460   14.1910   -8.3900 C   0  0  0  0  0  0  0  0  0  0  0  0
   22.9480   14.6560   -7.2820 C   0  0  0  0  0  0  0  0  0  0  0  0
   22.9260   13.9060   -6.1120 C   0  0  0  0  0  0  0  0  0  0  0  0
   30.8960   11.2010  -13.1930 C   0  0  1  0  0  0  0  0  0  0  0  0
   27.0272    6.1746  -10.0105 H   0  0  0  0  0  0  0  0  0  0  0  0
   28.8051    6.4508  -11.6779 H   0  0  0  0  0  0  0  0  0  0  0  0
   26.9561   10.4560   -9.5251 H   0  0  0  0  0  0  0  0  0  0  0  0
   28.7769   11.6575  -11.1755 H   0  0  0  0  0  0  0  0  0  0  0  0
   24.3731   10.4571   -5.0131 H   0  0  0  0  0  0  0  0  0  0  0  0
   25.1429    8.0690   -5.7299 H   0  0  0  0  0  0  0  0  0  0  0  0
   24.8735   12.6087   -9.2024 H   0  0  0  0  0  0  0  0  0  0  0  0
   23.6651   14.7831   -9.3169 H   0  0  0  0  0  0  0  0  0  0  0  0
   22.4137   15.6163   -7.3308 H   0  0  0  0  0  0  0  0  0  0  0  0
   22.3751   14.2746   -5.2341 H   0  0  0  0  0  0  0  0  0  0  0  0
   31.5010   11.7981  -12.4949 H   0  0  0  0  0  0  0  0  0  0  0  0
   31.5594   10.5939  -13.8264 H   0  0  0  0  0  0  0  0  0  0  0  0
   30.2976   11.8724  -13.8264 H   0  0  0  0  0  0  0  0  0  0  0  0
  5  1  1  0
  5 11  1  0
  1  2  2  0
  1  7  1  0
  2  3  1  0
  3  4  1  0
  4  8  2  0
  4  6  1  0
  6 10  1  0
  6  7  2  0
  8  9  1  0
  9 22  1  0
  9 10  2  0
 11 12  2  0
 11 15  1  0
 12 13  1  0
 13 16  1  0
 13 14  1  0
 14 15  2  0
 16 17  2  0
 16 18  1  0
 17 19  1  0
 18 21  2  0
 19 20  2  0
 20 21  1  0
  2 23  1  0
  3 24  1  0
  7 25  1  0
 10 26  1  0
 14 27  1  0
 15 28  1  0
 17 29  1  0
 19 30  1  0
 20 31  1  0
 21 32  1  0
 22 33  1  1
 22 34  1  0
 22 35  1  0
M  END
>  <Pose ID>  (519)
448

>  <Score>  (519)
-5.36488676071167

>  <smiles>  (519)
Cc1cc2cc(Oc3ccn(-c4ccccn4)n3)c[nH]c-2n1

$$$$

     RDKit          3D

 23 25  0  0  0  0  0  0  0  0999 V2000
   28.1930    9.6790  -10.9040 C   0  0  0  0  0  0  0  0  0  0  0  0
   27.4270    9.1350   -9.9140 N   0  0  0  0  0  0  0  0  0  0  0  0
   26.3930    9.7830   -9.2480 C   0  0  0  0  0  0  0  0  0  0  0  0
   27.8900   10.9790  -11.2940 C   0  0  0  0  0  0  0  0  0  0  0  0
   25.8060    9.0360   -8.3580 N   0  0  0  0  0  0  0  0  0  0  0  0
   26.7600   11.7470  -10.5930 C   0  0  0  0  0  0  0  0  0  0  0  0
   26.0620   11.0900   -9.5880 C   0  0  0  0  0  0  0  0  0  0  0  0
   28.6270   11.5940  -12.2980 C   0  0  0  0  0  0  0  0  0  0  0  0
   29.6690   10.9090  -12.9150 N   0  0  0  0  0  0  0  0  0  0  0  0
   29.9710    9.6110  -12.5270 C   0  0  0  0  0  0  0  0  0  0  0  0
   29.2180    8.9890  -11.5300 C   0  0  0  0  0  0  0  0  0  0  0  0
   24.7670    9.5380   -7.6230 C   0  0  0  0  0  0  0  0  0  0  0  0
   26.1100    7.6770   -8.0220 N   0  0  0  0  0  0  0  0  0  0  0  0
   24.3890    8.4970   -6.8230 C   0  0  0  0  0  0  0  0  0  0  0  0
   25.2410    7.3900   -7.0850 C   0  0  0  0  0  0  0  0  0  0  0  0
   26.5123   12.7805  -10.8767 H   0  0  0  0  0  0  0  0  0  0  0  0
   25.2457   11.6046   -9.0599 H   0  0  0  0  0  0  0  0  0  0  0  0
   28.3868   12.6225  -12.6052 H   0  0  0  0  0  0  0  0  0  0  0  0
   30.8030    9.0731  -13.0048 H   0  0  0  0  0  0  0  0  0  0  0  0
   29.4385    7.9507  -11.2413 H   0  0  0  0  0  0  0  0  0  0  0  0
   24.3348   10.5486   -7.6663 H   0  0  0  0  0  0  0  0  0  0  0  0
   23.5628    8.5130   -6.0970 H   0  0  0  0  0  0  0  0  0  0  0  0
   25.1788    6.4205   -6.5691 H   0  0  0  0  0  0  0  0  0  0  0  0
  1 11  1  0
  1  4  1  0
  1  2  2  0
  2  3  1  0
  3  7  2  0
  3  5  1  0
  4  8  1  0
  4  6  2  0
  6  7  1  0
  8  9  2  0
  9 10  1  0
 10 11  2  0
  5 13  1  0
  5 12  1  0
 12 14  2  0
 13 15  2  0
 14 15  1  0
  6 16  1  0
  7 17  1  0
  8 18  1  0
 10 19  1  0
 11 20  1  0
 12 21  1  0
 14 22  1  0
 15 23  1  0
M  END
>  <Pose ID>  (520)
91

>  <Score>  (520)
-5.364034175872803

>  <smiles>  (520)
c1cnn(-c2ccc3cnccc3n2)c1

$$$$

     RDKit          3D

 40 43  0  0  0  0  0  0  0  0999 V2000
   27.4040    7.5380  -10.0060 C   0  0  0  0  0  0  0  0  0  0  0  0
   28.2270    6.9320  -10.9450 C   0  0  0  0  0  0  0  0  0  0  0  0
   29.0030    7.7110  -11.7960 N   0  0  0  0  0  0  0  0  0  0  0  0
   28.9540    9.0970  -11.7080 C   0  0  0  0  0  0  0  0  0  0  0  0
   26.6630    6.5840   -9.1850 O   0  0  0  0  0  0  0  0  0  0  0  0
   28.1290    9.7050  -10.7670 C   0  0  0  0  0  0  0  0  0  0  0  0
   27.3560    8.9240   -9.9150 C   0  0  0  0  0  0  0  0  0  0  0  0
   29.5990   10.0510  -12.4080 N   0  0  0  0  0  0  0  0  0  0  0  0
   29.2050   11.2840  -11.9440 C   0  0  0  0  0  0  0  0  0  0  0  0
   28.2910   10.8990  -10.9370 C   0  0  0  0  0  0  0  0  0  0  0  0
   26.0040    6.9150   -7.9960 C   0  0  0  0  0  0  0  0  0  0  0  0
   25.2250    8.0610   -8.0040 N   0  0  0  0  0  0  0  0  0  0  0  0
   24.7260    8.2090   -6.8060 N   0  0  0  0  0  0  0  0  0  0  0  0
   25.0940    7.2190   -5.9020 C   0  0  0  0  0  0  0  0  0  0  0  0
   25.8840    6.4100   -6.7140 C   0  0  0  0  0  0  0  0  0  0  0  0
   23.8830    9.2400   -6.4020 C   0  0  0  0  0  0  0  0  0  0  0  0
   23.4080    9.2790   -5.0970 C   0  0  0  0  0  0  0  0  0  0  0  0
   23.7760    8.2870   -4.1930 C   0  0  0  0  0  0  0  0  0  0  0  0
   24.6180    7.2580   -4.5960 C   0  0  0  0  0  0  0  0  0  0  0  0
   22.5840   10.1720   -4.4700 N   0  0  0  0  0  0  0  0  0  0  0  0
   22.9200   10.6640   -3.1270 C   0  0  1  0  0  0  0  0  0  0  0  0
   21.3350   10.6330   -5.1830 C   0  0  1  0  0  0  0  0  0  0  0  0
   23.4850   10.3160   -7.3810 C   0  0  1  0  0  0  0  0  0  0  0  0
   28.2654    5.8350  -11.0160 H   0  0  0  0  0  0  0  0  0  0  0  0
   29.6144    7.2606  -12.4919 H   0  0  0  0  0  0  0  0  0  0  0  0
   26.7060    9.4035   -9.1683 H   0  0  0  0  0  0  0  0  0  0  0  0
   29.5146   12.2891  -12.2664 H   0  0  0  0  0  0  0  0  0  0  0  0
   27.7510   11.6444  -10.3347 H   0  0  0  0  0  0  0  0  0  0  0  0
   26.3580    5.4770   -6.3752 H   0  0  0  0  0  0  0  0  0  0  0  0
   23.4003    8.3176   -3.1596 H   0  0  0  0  0  0  0  0  0  0  0  0
   24.9083    6.4736   -3.8815 H   0  0  0  0  0  0  0  0  0  0  0  0
   22.4692   10.0039   -2.3713 H   0  0  0  0  0  0  0  0  0  0  0  0
   24.0129   10.6717   -3.0021 H   0  0  0  0  0  0  0  0  0  0  0  0
   22.5295   11.6847   -3.0021 H   0  0  0  0  0  0  0  0  0  0  0  0
   20.5724   10.9145   -4.4419 H   0  0  0  0  0  0  0  0  0  0  0  0
   21.5724   11.5027   -5.8132 H   0  0  0  0  0  0  0  0  0  0  0  0
   20.9504    9.8176   -5.8132 H   0  0  0  0  0  0  0  0  0  0  0  0
   23.1547   11.2090   -6.8301 H   0  0  0  0  0  0  0  0  0  0  0  0
   24.3474   10.5735   -8.0135 H   0  0  0  0  0  0  0  0  0  0  0  0
   22.6626    9.9503   -8.0135 H   0  0  0  0  0  0  0  0  0  0  0  0
 11  5  1  0
 11 12  2  0
 11 15  1  0
 12 13  1  0
 13 16  1  0
 13 14  1  0
 14 15  2  0
 14 19  1  0
 16 23  1  0
 16 17  2  0
 17 20  1  0
 17 18  1  0
 18 19  2  0
 20 22  1  0
 20 21  1  0
  5  1  1  0
  1  2  2  0
  1  7  1  0
  2  3  1  0
  3  4  1  0
  4  8  2  0
  4  6  1  0
  6 10  1  0
  6  7  2  0
  8  9  1  0
  9 10  2  0
  2 24  1  0
  3 25  1  0
  7 26  1  0
  9 27  1  0
 10 28  1  0
 15 29  1  0
 18 30  1  0
 19 31  1  0
 21 32  1  1
 21 33  1  0
 21 34  1  0
 22 35  1  1
 22 36  1  0
 22 37  1  0
 23 38  1  1
 23 39  1  0
 23 40  1  0
M  END
>  <Pose ID>  (521)
334

>  <Score>  (521)
-5.363378047943115

>  <smiles>  (521)
Cc1c(N(C)C)ccc2cc(Oc3c[nH]c4nccc-4c3)nn12

$$$$

     RDKit          3D

 33 36  0  0  0  0  0  0  0  0999 V2000
   27.9820    7.9050  -10.4740 C   0  0  0  0  0  0  0  0  0  0  0  0
   28.8080    7.1060  -11.2540 C   0  0  0  0  0  0  0  0  0  0  0  0
   29.7210    7.6880  -12.1220 N   0  0  0  0  0  0  0  0  0  0  0  0
   29.8110    9.0720  -12.2100 C   0  0  0  0  0  0  0  0  0  0  0  0
   27.0870    7.1400   -9.6100 O   0  0  0  0  0  0  0  0  0  0  0  0
   28.9840    9.8730  -11.4290 C   0  0  0  0  0  0  0  0  0  0  0  0
   28.0720    9.2880  -10.5600 C   0  0  0  0  0  0  0  0  0  0  0  0
   30.6030    9.8590  -12.9620 N   0  0  0  0  0  0  0  0  0  0  0  0
   30.3050   11.1780  -12.6920 C   0  0  0  0  0  0  0  0  0  0  0  0
   29.2830   11.0150  -11.7320 C   0  0  0  0  0  0  0  0  0  0  0  0
   26.3770    7.6850   -8.5330 C   0  0  0  0  0  0  0  0  0  0  0  0
   25.7260    8.8880   -8.7540 N   0  0  0  0  0  0  0  0  0  0  0  0
   25.1180    9.2650   -7.5700 N   0  0  0  0  0  0  0  0  0  0  0  0
   25.3700    8.3260   -6.6460 C   0  0  0  0  0  0  0  0  0  0  0  0
   26.1070    7.3660   -7.2140 C   0  0  0  0  0  0  0  0  0  0  0  0
   24.4580   10.3320   -7.3990 C   0  0  0  0  0  0  0  0  0  0  0  0
   24.3670   11.0810   -8.5660 C   0  0  0  0  0  0  0  0  0  0  0  0
   23.6380   12.2650   -8.5760 C   0  0  0  0  0  0  0  0  0  0  0  0
   23.8210   10.7670   -6.2430 C   0  0  0  0  0  0  0  0  0  0  0  0
   23.0020   12.6990   -7.4200 C   0  0  0  0  0  0  0  0  0  0  0  0
   23.0410   11.9550   -6.2930 N   0  0  0  0  0  0  0  0  0  0  0  0
   23.9310   10.1270   -5.1810 O   0  0  0  0  0  0  0  0  0  0  0  0
   28.7384    6.0105  -11.1836 H   0  0  0  0  0  0  0  0  0  0  0  0
   30.3319    7.0943  -12.7010 H   0  0  0  0  0  0  0  0  0  0  0  0
   27.4205    9.9208   -9.9394 H   0  0  0  0  0  0  0  0  0  0  0  0
   30.7410   12.0983  -13.1078 H   0  0  0  0  0  0  0  0  0  0  0  0
   28.7787   11.8805  -11.2775 H   0  0  0  0  0  0  0  0  0  0  0  0
   25.0288    8.3429   -5.6004 H   0  0  0  0  0  0  0  0  0  0  0  0
   26.4498    6.4529   -6.7053 H   0  0  0  0  0  0  0  0  0  0  0  0
   24.8713   10.7374   -9.4812 H   0  0  0  0  0  0  0  0  0  0  0  0
   23.5650   12.8580   -9.4996 H   0  0  0  0  0  0  0  0  0  0  0  0
   22.4617   13.6571   -7.4221 H   0  0  0  0  0  0  0  0  0  0  0  0
   22.5030   12.2498   -5.4657 H   0  0  0  0  0  0  0  0  0  0  0  0
 11  5  1  0
 11 12  2  0
 11 15  1  0
 12 13  1  0
 13 16  1  0
 13 14  1  0
 14 15  2  0
 16 17  2  0
 16 19  1  0
 17 18  1  0
 18 20  2  0
 19 21  1  0
 19 22  2  0
 20 21  1  0
  5  1  1  0
  1  2  2  0
  1  7  1  0
  2  3  1  0
  3  4  1  0
  4  8  2  0
  4  6  1  0
  6 10  1  0
  6  7  2  0
  8  9  1  0
  9 10  2  0
  2 23  1  0
  3 24  1  0
  7 25  1  0
  9 26  1  0
 10 27  1  0
 14 28  1  0
 15 29  1  0
 17 30  1  0
 18 31  1  0
 20 32  1  0
 21 33  1  0
M  END
>  <Pose ID>  (522)
418

>  <Score>  (522)
-5.363308429718018

>  <smiles>  (522)
O=c1[nH]cccc1-n1ccc(Oc2c[nH]c3nccc-3c2)n1

$$$$

     RDKit          3D

 35 38  0  0  0  0  0  0  0  0999 V2000
   27.7240    7.7930  -10.2830 C   0  0  0  0  0  0  0  0  0  0  0  0
   28.4870    7.0820  -11.2010 C   0  0  0  0  0  0  0  0  0  0  0  0
   29.3110    7.7600  -12.0930 N   0  0  0  0  0  0  0  0  0  0  0  0
   29.3740    9.1480  -12.0640 C   0  0  0  0  0  0  0  0  0  0  0  0
   26.9200    6.9370   -9.4160 O   0  0  0  0  0  0  0  0  0  0  0  0
   28.6100    9.8600  -11.1450 C   0  0  0  0  0  0  0  0  0  0  0  0
   27.7870    9.1810  -10.2530 C   0  0  0  0  0  0  0  0  0  0  0  0
   30.0850   10.0160  -12.8110 N   0  0  0  0  0  0  0  0  0  0  0  0
   29.7960   11.2970  -12.3980 C   0  0  0  0  0  0  0  0  0  0  0  0
   28.8640   11.0280  -11.3690 C   0  0  0  0  0  0  0  0  0  0  0  0
   26.3030    7.3700   -8.2380 C   0  0  0  0  0  0  0  0  0  0  0  0
   25.6190    8.5740   -8.2900 N   0  0  0  0  0  0  0  0  0  0  0  0
   25.1150    8.8320   -7.0280 N   0  0  0  0  0  0  0  0  0  0  0  0
   25.4600    7.8210   -6.2190 C   0  0  0  0  0  0  0  0  0  0  0  0
   26.1580    6.9320   -6.9320 C   0  0  0  0  0  0  0  0  0  0  0  0
   24.4230    9.9570   -6.7130 C   0  0  0  0  0  0  0  0  0  0  0  0
   23.1580    9.8760   -6.1400 C   0  0  0  0  0  0  0  0  0  0  0  0
   25.0110   11.1990   -6.9230 C   0  0  0  0  0  0  0  0  0  0  0  0
   24.3360   12.3580   -6.5600 C   0  0  0  0  0  0  0  0  0  0  0  0
   23.0730   12.2760   -5.9880 N   0  0  0  0  0  0  0  0  0  0  0  0
   22.4840   11.0360   -5.7780 C   0  0  0  0  0  0  0  0  0  0  0  0
   24.9750   13.7060   -6.7870 C   0  0  1  0  0  0  0  0  0  0  0  0
   28.4394    5.9832  -11.2223 H   0  0  0  0  0  0  0  0  0  0  0  0
   29.8747    7.2332  -12.7753 H   0  0  0  0  0  0  0  0  0  0  0  0
   27.1855    9.7429   -9.5233 H   0  0  0  0  0  0  0  0  0  0  0  0
   30.1817   12.2595  -12.7652 H   0  0  0  0  0  0  0  0  0  0  0  0
   28.3899   11.8390  -10.7967 H   0  0  0  0  0  0  0  0  0  0  0  0
   25.2112    7.7372   -5.1508 H   0  0  0  0  0  0  0  0  0  0  0  0
   26.5601    5.9870   -6.5379 H   0  0  0  0  0  0  0  0  0  0  0  0
   22.6913    8.8939   -5.9735 H   0  0  0  0  0  0  0  0  0  0  0  0
   26.0110   11.2643   -7.3767 H   0  0  0  0  0  0  0  0  0  0  0  0
   21.4837   10.9721   -5.3250 H   0  0  0  0  0  0  0  0  0  0  0  0
   25.1971   14.1745   -5.8169 H   0  0  0  0  0  0  0  0  0  0  0  0
   25.9084   13.5784   -7.3548 H   0  0  0  0  0  0  0  0  0  0  0  0
   24.2853   14.3478   -7.3548 H   0  0  0  0  0  0  0  0  0  0  0  0
 11  5  1  0
 11 12  2  0
 11 15  1  0
 12 13  1  0
 13 16  1  0
 13 14  1  0
 14 15  2  0
 16 18  1  0
 16 17  2  0
 17 21  1  0
 18 19  2  0
 19 22  1  0
 19 20  1  0
 20 21  2  0
  5  1  1  0
  1  2  2  0
  1  7  1  0
  2  3  1  0
  3  4  1  0
  4  8  2  0
  4  6  1  0
  6 10  1  0
  6  7  2  0
  8  9  1  0
  9 10  2  0
  2 23  1  0
  3 24  1  0
  7 25  1  0
  9 26  1  0
 10 27  1  0
 14 28  1  0
 15 29  1  0
 17 30  1  0
 18 31  1  0
 21 32  1  0
 22 33  1  1
 22 34  1  0
 22 35  1  0
M  END
>  <Pose ID>  (523)
257

>  <Score>  (523)
-5.362708568572998

>  <smiles>  (523)
Cc1cc(-n2ccc(Oc3c[nH]c4nccc-4c3)n2)ccn1

$$$$

     RDKit          3D

 14 14  0  0  0  0  0  0  0  0999 V2000
   28.6950    9.6530  -11.7640 C   0  0  0  0  0  0  0  0  0  0  0  0
   29.1850    8.3530  -11.7880 C   0  0  0  0  0  0  0  0  0  0  0  0
   28.6340    7.3870  -10.9530 N   0  0  0  0  0  0  0  0  0  0  0  0
   27.6540    9.9890  -10.9060 N   0  0  0  0  0  0  0  0  0  0  0  0
   27.5940    7.7220  -10.0960 C   0  0  0  0  0  0  0  0  0  0  0  0
   27.1030    9.0220  -10.0720 C   0  0  0  0  0  0  0  0  0  0  0  0
   27.1020    6.8580   -9.3480 O   0  0  0  0  0  0  0  0  0  0  0  0
   29.2930   10.7010  -12.6690 C   0  0  1  0  0  0  0  0  0  0  0  0
   30.0086    8.0880  -12.4673 H   0  0  0  0  0  0  0  0  0  0  0  0
   28.9972    6.4233  -10.9702 H   0  0  0  0  0  0  0  0  0  0  0  0
   26.2786    9.2861   -9.3933 H   0  0  0  0  0  0  0  0  0  0  0  0
   29.7468   11.4962  -12.0593 H   0  0  0  0  0  0  0  0  0  0  0  0
   30.0643   10.2404  -13.3038 H   0  0  0  0  0  0  0  0  0  0  0  0
   28.5041   11.1307  -13.3038 H   0  0  0  0  0  0  0  0  0  0  0  0
  1  8  1  0
  1  2  2  0
  1  4  1  0
  2  3  1  0
  3  5  1  0
  4  6  2  0
  5  6  1  0
  5  7  2  0
  2  9  1  0
  3 10  1  0
  6 11  1  0
  8 12  1  1
  8 13  1  0
  8 14  1  0
M  END
>  <Pose ID>  (524)
140

>  <Score>  (524)
-5.358184337615967

>  <smiles>  (524)
Cc1c[nH]c(=O)cn1

$$$$

     RDKit          3D

 31 34  0  0  0  0  0  0  0  0999 V2000
   27.8950    7.9070  -10.3240 C   0  0  0  0  0  0  0  0  0  0  0  0
   28.8380    7.1560  -11.0140 C   0  0  0  0  0  0  0  0  0  0  0  0
   29.7140    7.7790  -11.8940 N   0  0  0  0  0  0  0  0  0  0  0  0
   29.6490    9.1540  -12.0840 C   0  0  0  0  0  0  0  0  0  0  0  0
   27.0580    7.1060   -9.4350 O   0  0  0  0  0  0  0  0  0  0  0  0
   28.7030    9.9070  -11.3950 C   0  0  0  0  0  0  0  0  0  0  0  0
   27.8290    9.2820  -10.5140 C   0  0  0  0  0  0  0  0  0  0  0  0
   30.3750    9.9730  -12.8700 N   0  0  0  0  0  0  0  0  0  0  0  0
   29.9170   11.2620  -12.7100 C   0  0  0  0  0  0  0  0  0  0  0  0
   28.8810   11.0510  -11.7740 C   0  0  0  0  0  0  0  0  0  0  0  0
   26.2460    7.6420   -8.4280 C   0  0  0  0  0  0  0  0  0  0  0  0
   25.4710    8.7400   -8.7590 N   0  0  0  0  0  0  0  0  0  0  0  0
   24.8050    9.1050   -7.6550 N   0  0  0  0  0  0  0  0  0  0  0  0
   25.0900    8.2650   -6.5860 C   0  0  0  0  0  0  0  0  0  0  0  0
   25.9630    7.3890   -7.0980 C   0  0  0  0  0  0  0  0  0  0  0  0
   23.9070   10.1530   -7.4940 C   0  0  0  0  0  0  0  0  0  0  0  0
   23.2950   10.3620   -6.2640 N   0  0  0  0  0  0  0  0  0  0  0  0
   23.5800    9.5210   -5.1940 C   0  0  0  0  0  0  0  0  0  0  0  0
   24.4780    8.4720   -5.3550 C   0  0  0  0  0  0  0  0  0  0  0  0
   23.5960   11.0650   -8.6540 C   0  0  1  0  0  0  0  0  0  0  0  0
   28.8912    6.0676  -10.8636 H   0  0  0  0  0  0  0  0  0  0  0  0
   30.4123    7.2212  -12.4061 H   0  0  0  0  0  0  0  0  0  0  0  0
   27.0834    9.8768   -9.9659 H   0  0  0  0  0  0  0  0  0  0  0  0
   30.2618   12.1949  -13.1799 H   0  0  0  0  0  0  0  0  0  0  0  0
   28.2626   11.8820  -11.4038 H   0  0  0  0  0  0  0  0  0  0  0  0
   26.4057    6.5608   -6.5252 H   0  0  0  0  0  0  0  0  0  0  0  0
   23.0951    9.6856   -4.2205 H   0  0  0  0  0  0  0  0  0  0  0  0
   24.7041    7.8063   -4.5090 H   0  0  0  0  0  0  0  0  0  0  0  0
   23.2629   12.0418   -8.2734 H   0  0  0  0  0  0  0  0  0  0  0  0
   24.4992   11.1991   -9.2674 H   0  0  0  0  0  0  0  0  0  0  0  0
   22.7990   10.6193   -9.2674 H   0  0  0  0  0  0  0  0  0  0  0  0
  5  1  1  0
  5 11  1  0
  1  2  2  0
  1  7  1  0
  2  3  1  0
  3  4  1  0
  4  8  2  0
  4  6  1  0
  6 10  1  0
  6  7  2  0
  8  9  1  0
  9 10  2  0
 11 12  2  0
 11 15  1  0
 12 13  1  0
 13 16  1  0
 13 14  1  0
 14 15  2  0
 14 19  1  0
 16 20  1  0
 16 17  2  0
 17 18  1  0
 18 19  2  0
  2 21  1  0
  3 22  1  0
  7 23  1  0
  9 24  1  0
 10 25  1  0
 15 26  1  0
 18 27  1  0
 19 28  1  0
 20 29  1  1
 20 30  1  0
 20 31  1  0
M  END
>  <Pose ID>  (525)
275

>  <Score>  (525)
-5.355856418609619

>  <smiles>  (525)
Cc1nccc2cc(Oc3c[nH]c4nccc-4c3)nn12

$$$$

     RDKit          3D

 32 35  0  0  0  0  0  0  0  0999 V2000
   27.8700    7.9010  -10.2950 C   0  0  0  0  0  0  0  0  0  0  0  0
   28.8000    7.1490  -11.0010 C   0  0  0  0  0  0  0  0  0  0  0  0
   29.6730    7.7750  -11.8840 N   0  0  0  0  0  0  0  0  0  0  0  0
   29.6170    9.1530  -12.0580 C   0  0  0  0  0  0  0  0  0  0  0  0
   27.0340    7.0980   -9.4070 O   0  0  0  0  0  0  0  0  0  0  0  0
   28.6850    9.9050  -11.3500 C   0  0  0  0  0  0  0  0  0  0  0  0
   27.8140    9.2790  -10.4680 C   0  0  0  0  0  0  0  0  0  0  0  0
   30.3440    9.9750  -12.8410 N   0  0  0  0  0  0  0  0  0  0  0  0
   29.8980   11.2650  -12.6620 C   0  0  0  0  0  0  0  0  0  0  0  0
   28.8700   11.0520  -11.7180 C   0  0  0  0  0  0  0  0  0  0  0  0
   26.2360    7.6280   -8.3860 C   0  0  0  0  0  0  0  0  0  0  0  0
   25.4660    8.7370   -8.6980 N   0  0  0  0  0  0  0  0  0  0  0  0
   24.8260    9.0930   -7.6150 N   0  0  0  0  0  0  0  0  0  0  0  0
   25.0800    8.2930   -6.5080 C   0  0  0  0  0  0  0  0  0  0  0  0
   25.9620    7.3640   -7.0560 C   0  0  0  0  0  0  0  0  0  0  0  0
   23.9430   10.1620   -7.5110 C   0  0  0  0  0  0  0  0  0  0  0  0
   23.3140   10.4300   -6.3010 C   0  0  0  0  0  0  0  0  0  0  0  0
   23.5680    9.6290   -5.1940 C   0  0  0  0  0  0  0  0  0  0  0  0
   24.4510    8.5600   -5.2980 C   0  0  0  0  0  0  0  0  0  0  0  0
   23.6660   11.0300   -8.7140 C   0  0  1  0  0  0  0  0  0  0  0  0
   28.8460    6.0588  -10.8618 H   0  0  0  0  0  0  0  0  0  0  0  0
   30.3614    7.2174  -12.4094 H   0  0  0  0  0  0  0  0  0  0  0  0
   27.0792    9.8741   -9.9059 H   0  0  0  0  0  0  0  0  0  0  0  0
   30.2455   12.2003  -13.1251 H   0  0  0  0  0  0  0  0  0  0  0  0
   28.2631   11.8842  -11.3319 H   0  0  0  0  0  0  0  0  0  0  0  0
   26.3904    6.5194   -6.4965 H   0  0  0  0  0  0  0  0  0  0  0  0
   22.6154   11.2758   -6.2195 H   0  0  0  0  0  0  0  0  0  0  0  0
   23.0707    9.8407   -4.2359 H   0  0  0  0  0  0  0  0  0  0  0  0
   24.6517    7.9254   -4.4222 H   0  0  0  0  0  0  0  0  0  0  0  0
   23.3474   12.0285   -8.3801 H   0  0  0  0  0  0  0  0  0  0  0  0
   24.5800   11.1202   -9.3194 H   0  0  0  0  0  0  0  0  0  0  0  0
   22.8687   10.5740   -9.3194 H   0  0  0  0  0  0  0  0  0  0  0  0
  5  1  1  0
  5 11  1  0
  1  2  2  0
  1  7  1  0
  2  3  1  0
  3  4  1  0
  4  8  2  0
  4  6  1  0
  6 10  1  0
  6  7  2  0
  8  9  1  0
  9 10  2  0
 11 12  2  0
 11 15  1  0
 12 13  1  0
 13 16  1  0
 13 14  1  0
 14 15  2  0
 14 19  1  0
 16 20  1  0
 16 17  2  0
 17 18  1  0
 18 19  2  0
  2 21  1  0
  3 22  1  0
  7 23  1  0
  9 24  1  0
 10 25  1  0
 15 26  1  0
 17 27  1  0
 18 28  1  0
 19 29  1  0
 20 30  1  1
 20 31  1  0
 20 32  1  0
M  END
>  <Pose ID>  (526)
332

>  <Score>  (526)
-5.353147506713867

>  <smiles>  (526)
Cc1cccc2cc(Oc3c[nH]c4nccc-4c3)nn12

$$$$

     RDKit          3D

 33 36  0  0  0  0  0  0  0  0999 V2000
   27.3160    8.0410  -10.2570 C   0  0  0  0  0  0  0  0  0  0  0  0
   28.2950    7.2090  -10.7790 C   0  0  0  0  0  0  0  0  0  0  0  0
   29.2900    7.7330  -11.5940 N   0  0  0  0  0  0  0  0  0  0  0  0
   26.4770    7.3160   -9.4990 N   0  0  0  0  0  0  0  0  0  0  0  0
   29.3070    9.0920  -11.8840 C   0  0  0  0  0  0  0  0  0  0  0  0
   28.3270    9.9250  -11.3590 C   0  0  0  0  0  0  0  0  0  0  0  0
   27.3320    9.4030  -10.5460 C   0  0  0  0  0  0  0  0  0  0  0  0
   30.1550    9.8220  -12.6310 N   0  0  0  0  0  0  0  0  0  0  0  0
   29.7420   11.1350  -12.6110 C   0  0  0  0  0  0  0  0  0  0  0  0
   28.5980   11.0320  -11.7900 C   0  0  0  0  0  0  0  0  0  0  0  0
   26.0370    7.7290   -8.2060 C   0  0  0  0  0  0  0  0  0  0  0  0
   25.3410    6.8170   -7.4240 N   0  0  0  0  0  0  0  0  0  0  0  0
   24.7930    7.2170   -6.2100 C   0  0  0  0  0  0  0  0  0  0  0  0
   24.9430    8.5300   -5.7810 C   0  0  0  0  0  0  0  0  0  0  0  0
   25.6400    9.4440   -6.5640 C   0  0  0  0  0  0  0  0  0  0  0  0
   26.2110    9.0320   -7.7630 C   0  0  0  0  0  0  0  0  0  0  0  0
   24.1700    6.4000   -5.5090 O   0  0  0  0  0  0  0  0  0  0  0  0
   25.9040   10.8120   -6.3710 C   0  0  0  0  0  0  0  0  0  0  0  0
   26.6040   11.5750   -7.1880 N   0  0  0  0  0  0  0  0  0  0  0  0
   26.6760   12.9190   -6.7190 C   0  0  0  0  0  0  0  0  0  0  0  0
   25.5630   11.7910   -5.3170 C   0  0  0  0  0  0  0  0  0  0  0  0
   25.9700   12.9770   -5.5400 O   0  0  0  0  0  0  0  0  0  0  0  0
   28.2835    6.1337  -10.5475 H   0  0  0  0  0  0  0  0  0  0  0  0
   30.0155    7.1143  -11.9836 H   0  0  0  0  0  0  0  0  0  0  0  0
   26.1345    6.4179   -9.8692 H   0  0  0  0  0  0  0  0  0  0  0  0
   26.5570   10.0637  -10.1303 H   0  0  0  0  0  0  0  0  0  0  0  0
   30.1808   12.0180  -13.0986 H   0  0  0  0  0  0  0  0  0  0  0  0
   27.9802   11.9101  -11.5506 H   0  0  0  0  0  0  0  0  0  0  0  0
   25.2305    5.8439   -7.7431 H   0  0  0  0  0  0  0  0  0  0  0  0
   24.5099    8.8470   -4.8208 H   0  0  0  0  0  0  0  0  0  0  0  0
   26.8020    9.7408   -8.3616 H   0  0  0  0  0  0  0  0  0  0  0  0
   27.1986   13.7540   -7.2085 H   0  0  0  0  0  0  0  0  0  0  0  0
   25.0019   11.5167   -4.4115 H   0  0  0  0  0  0  0  0  0  0  0  0
 11  4  1  0
 11 16  2  0
 11 12  1  0
 12 13  1  0
 13 14  1  0
 13 17  2  0
 14 15  2  0
 15 16  1  0
 15 18  1  0
 18 19  1  0
 18 21  2  0
 19 20  2  0
 20 22  1  0
 21 22  1  0
  4  1  1  0
  1  2  2  0
  1  7  1  0
  2  3  1  0
  3  5  1  0
  5  8  2  0
  5  6  1  0
  6 10  1  0
  6  7  2  0
  8  9  1  0
  9 10  2  0
  2 23  1  0
  3 24  1  0
  4 25  1  0
  7 26  1  0
  9 27  1  0
 10 28  1  0
 12 29  1  0
 14 30  1  0
 16 31  1  0
 20 32  1  0
 21 33  1  0
M  END
>  <Pose ID>  (527)
123

>  <Score>  (527)
-5.347142219543457

>  <smiles>  (527)
O=c1cc(-c2cocn2)cc(Nc2c[nH]c3nccc-3c2)[nH]1

$$$$

     RDKit          3D

 30 32  0  0  0  0  0  0  0  0999 V2000
   26.9750    9.4470   -9.9950 C   0  0  0  0  0  0  0  0  0  0  0  0
   27.6480    8.3090  -10.4150 C   0  0  0  0  0  0  0  0  0  0  0  0
   28.6530    8.3950  -11.5620 N   0  0  0  0  0  0  0  0  0  0  0  0
   26.0470    9.3620   -8.9410 C   0  0  0  0  0  0  0  0  0  0  0  0
   25.9290    8.0750   -8.4250 C   0  0  0  0  0  0  0  0  0  0  0  0
   26.4960    7.0110   -8.7500 C   0  0  0  0  0  0  0  0  0  0  0  0
   27.4100    7.0900   -9.7920 C   0  0  0  0  0  0  0  0  0  0  0  0
   25.2950   10.3960   -8.3980 N   0  0  0  0  0  0  0  0  0  0  0  0
   24.4250   10.1490   -7.3430 C   0  0  0  0  0  0  0  0  0  0  0  0
   24.3060    8.8620   -6.8290 N   0  0  0  0  0  0  0  0  0  0  0  0
   25.0490    7.8220   -7.3640 C   0  0  0  0  0  0  0  0  0  0  0  0
   28.8760    9.6040  -12.1240 C   0  0  0  0  0  0  0  0  0  0  0  0
   30.2080    9.9510  -12.3120 C   0  0  0  0  0  0  0  0  0  0  0  0
   30.5340   11.1780  -12.8770 C   0  0  0  0  0  0  0  0  0  0  0  0
   29.5270   12.0600  -13.2520 C   0  0  0  0  0  0  0  0  0  0  0  0
   28.1930   11.7120  -13.0630 C   0  0  0  0  0  0  0  0  0  0  0  0
   27.8690   10.4850  -12.5000 N   0  0  0  0  0  0  0  0  0  0  0  0
   27.1000   12.6680  -13.4700 C   0  0  1  0  0  0  0  0  0  0  0  0
   27.1664   10.4132  -10.4847 H   0  0  0  0  0  0  0  0  0  0  0  0
   29.1467    7.5557  -11.8977 H   0  0  0  0  0  0  0  0  0  0  0  0
   26.2826    6.0612   -8.2377 H   0  0  0  0  0  0  0  0  0  0  0  0
   27.9454    6.1883  -10.1241 H   0  0  0  0  0  0  0  0  0  0  0  0
   23.8312   10.9701   -6.9149 H   0  0  0  0  0  0  0  0  0  0  0  0
   24.9488    6.8044   -6.9586 H   0  0  0  0  0  0  0  0  0  0  0  0
   31.0050    9.2541  -12.0135 H   0  0  0  0  0  0  0  0  0  0  0  0
   31.5888   11.4514  -13.0275 H   0  0  0  0  0  0  0  0  0  0  0  0
   29.7845   13.0321  -13.6977 H   0  0  0  0  0  0  0  0  0  0  0  0
   26.6236   13.0847  -12.5703 H   0  0  0  0  0  0  0  0  0  0  0  0
   27.5309   13.4843  -14.0683 H   0  0  0  0  0  0  0  0  0  0  0  0
   26.3483   12.1323  -14.0683 H   0  0  0  0  0  0  0  0  0  0  0  0
  1  2  2  0
  1  4  1  0
  2  3  1  0
  2  7  1  0
  4  5  2  0
  4  8  1  0
  5  6  1  0
  5 11  1  0
  6  7  2  0
  8  9  2  0
  9 10  1  0
 10 11  2  0
  3 12  1  0
 12 17  1  0
 12 13  2  0
 13 14  1  0
 14 15  2  0
 15 16  1  0
 16 18  1  0
 16 17  2  0
  1 19  1  0
  3 20  1  0
  6 21  1  0
  7 22  1  0
  9 23  1  0
 11 24  1  0
 13 25  1  0
 14 26  1  0
 15 27  1  0
 18 28  1  1
 18 29  1  0
 18 30  1  0
M  END
>  <Pose ID>  (528)
2

>  <Score>  (528)
-5.346008777618408

>  <smiles>  (528)
Cc1cccc(Nc2ccc3cncnc3c2)n1

$$$$

     RDKit          3D

 38 40  0  0  0  0  0  0  0  0999 V2000
   28.0990    8.0640  -10.0530 C   0  0  0  0  0  0  0  0  0  0  0  0
   27.5360    7.2180   -9.1050 N   0  0  0  0  0  0  0  0  0  0  0  0
   26.2850    7.5050   -8.5740 C   0  0  0  0  0  0  0  0  0  0  0  0
   25.5950    8.6400   -8.9920 C   0  0  0  0  0  0  0  0  0  0  0  0
   26.1560    9.4830   -9.9400 N   0  0  0  0  0  0  0  0  0  0  0  0
   27.4040    9.1970  -10.4760 C   0  0  0  0  0  0  0  0  0  0  0  0
   24.4720    8.8950   -8.5140 O   0  0  0  0  0  0  0  0  0  0  0  0
   25.5310    6.8360   -7.6420 N   0  0  0  0  0  0  0  0  0  0  0  0
   24.9760    7.4300   -6.3270 C   0  0  0  0  0  0  0  0  0  0  0  0
   25.2830    8.7690   -6.1110 C   0  0  0  0  0  0  0  0  0  0  0  0
   24.7940    9.4230   -4.9860 N   0  0  0  0  0  0  0  0  0  0  0  0
   23.9980    8.7370   -4.0770 C   0  0  0  0  0  0  0  0  0  0  0  0
   23.6900    7.3980   -4.2930 C   0  0  0  0  0  0  0  0  0  0  0  0
   24.1810    6.7480   -5.4170 C   0  0  0  0  0  0  0  0  0  0  0  0
   23.4750    9.4370   -2.8770 C   0  0  0  0  0  0  0  0  0  0  0  0
   23.9900    9.2750   -1.7460 O   0  0  0  0  0  0  0  0  0  0  0  0
   22.2980   10.3480   -2.9550 N   0  0  0  0  0  0  0  0  0  0  0  0
   22.0740   11.5130   -2.0860 C   0  0  1  0  0  0  0  0  0  0  0  0
   21.5930   12.7000   -2.8930 C   0  0  1  0  0  0  0  0  0  0  0  0
   20.7550   11.9640   -3.9850 C   0  0  1  0  0  0  0  0  0  0  0  0
   21.3580   10.5350   -3.9240 C   0  0  0  0  0  0  0  0  0  0  0  0
   21.0200    9.6260   -4.7520 O   0  0  0  0  0  0  0  0  0  0  0  0
   22.8240    6.6530   -3.3070 C   0  0  1  0  0  0  0  0  0  0  0  0
   29.0922    7.8402  -10.4696 H   0  0  0  0  0  0  0  0  0  0  0  0
   25.6453   10.3232  -10.2469 H   0  0  0  0  0  0  0  0  0  0  0  0
   27.8442    9.8627  -11.2330 H   0  0  0  0  0  0  0  0  0  0  0  0
   25.3153    5.8478   -7.8367 H   0  0  0  0  0  0  0  0  0  0  0  0
   25.9134    9.3112   -6.8311 H   0  0  0  0  0  0  0  0  0  0  0  0
   23.9390    5.6885   -5.5869 H   0  0  0  0  0  0  0  0  0  0  0  0
   21.3157   11.2592   -1.3306 H   0  0  0  0  0  0  0  0  0  0  0  0
   23.0243   11.7785   -1.5998 H   0  0  0  0  0  0  0  0  0  0  0  0
   20.9717   13.3786   -2.2902 H   0  0  0  0  0  0  0  0  0  0  0  0
   22.3909   13.3501   -3.2813 H   0  0  0  0  0  0  0  0  0  0  0  0
   19.6838   11.9595   -3.7348 H   0  0  0  0  0  0  0  0  0  0  0  0
   20.8049   12.4306   -4.9799 H   0  0  0  0  0  0  0  0  0  0  0  0
   23.1273    6.9139   -2.2823 H   0  0  0  0  0  0  0  0  0  0  0  0
   21.7710    6.9319   -3.4600 H   0  0  0  0  0  0  0  0  0  0  0  0
   22.9425    5.5701   -3.4600 H   0  0  0  0  0  0  0  0  0  0  0  0
  9  8  1  0
  9 10  2  0
  9 14  1  0
 10 11  1  0
 11 12  2  0
 12 13  1  0
 12 15  1  0
 13 14  2  0
 13 23  1  0
  1  6  2  0
  1  2  1  0
  2  3  2  0
  3  4  1  0
  3  8  1  0
  4  5  1  0
  4  7  2  0
  5  6  1  0
 15 17  1  0
 15 16  2  0
 17 21  1  0
 17 18  1  0
 18 19  1  0
 19 20  1  0
 20 21  1  0
 21 22  2  0
  1 24  1  0
  5 25  1  0
  6 26  1  0
  8 27  1  0
 10 28  1  0
 14 29  1  0
 18 30  1  1
 18 31  1  0
 19 32  1  1
 19 33  1  0
 20 34  1  1
 20 35  1  0
 23 36  1  1
 23 37  1  0
 23 38  1  0
M  END
>  <Pose ID>  (529)
46

>  <Score>  (529)
-5.337618350982666

>  <smiles>  (529)
Cc1cc(Nc2ncc[nH]c2=O)cnc1C(=O)N1CCCC1=O

$$$$

     RDKit          3D

 38 41  0  0  0  0  0  0  0  0999 V2000
   27.6840    7.8460  -10.2540 C   0  0  0  0  0  0  0  0  0  0  0  0
   28.4720    7.1090  -11.1280 C   0  0  0  0  0  0  0  0  0  0  0  0
   29.3110    7.7600  -12.0240 N   0  0  0  0  0  0  0  0  0  0  0  0
   29.3620    9.1490  -12.0480 C   0  0  0  0  0  0  0  0  0  0  0  0
   26.8680    7.0150   -9.3720 O   0  0  0  0  0  0  0  0  0  0  0  0
   28.5690    9.8870  -11.1740 C   0  0  0  0  0  0  0  0  0  0  0  0
   27.7340    9.2340  -10.2750 C   0  0  0  0  0  0  0  0  0  0  0  0
   30.0790    9.9940  -12.8120 N   0  0  0  0  0  0  0  0  0  0  0  0
   29.7690   11.2870  -12.4540 C   0  0  0  0  0  0  0  0  0  0  0  0
   28.8190   11.0490  -11.4370 C   0  0  0  0  0  0  0  0  0  0  0  0
   26.2210    7.4880   -8.2260 C   0  0  0  0  0  0  0  0  0  0  0  0
   25.5270    8.6810   -8.3390 N   0  0  0  0  0  0  0  0  0  0  0  0
   24.9940    8.9830   -7.1000 N   0  0  0  0  0  0  0  0  0  0  0  0
   25.3290    8.0060   -6.2450 C   0  0  0  0  0  0  0  0  0  0  0  0
   26.0510    7.0970   -6.9080 C   0  0  0  0  0  0  0  0  0  0  0  0
   24.2430   10.0710   -6.8410 C   0  0  0  0  0  0  0  0  0  0  0  0
   24.8130   11.3050   -7.1260 C   0  0  0  0  0  0  0  0  0  0  0  0
   23.1420    9.9920   -5.9970 C   0  0  0  0  0  0  0  0  0  0  0  0
   24.2810   12.4610   -6.5670 N   0  0  0  0  0  0  0  0  0  0  0  0
   22.6100   11.1470   -5.4370 C   0  0  0  0  0  0  0  0  0  0  0  0
   23.1790   12.3830   -5.7220 C   0  0  0  0  0  0  0  0  0  0  0  0
   22.6030   13.6380   -5.1140 C   0  0  1  0  0  0  0  0  0  0  0  0
   22.5250    8.6510   -5.6870 C   0  0  1  0  0  0  0  0  0  0  0  0
   28.4320    6.0099  -11.1110 H   0  0  0  0  0  0  0  0  0  0  0  0
   29.8960    7.2127  -12.6714 H   0  0  0  0  0  0  0  0  0  0  0  0
   27.1122    9.8169   -9.5795 H   0  0  0  0  0  0  0  0  0  0  0  0
   30.1537   12.2386  -12.8495 H   0  0  0  0  0  0  0  0  0  0  0  0
   28.3266   11.8769  -10.9058 H   0  0  0  0  0  0  0  0  0  0  0  0
   25.0564    7.9603   -5.1803 H   0  0  0  0  0  0  0  0  0  0  0  0
   26.4525    6.1714   -6.4698 H   0  0  0  0  0  0  0  0  0  0  0  0
   25.6849   11.3674   -7.7937 H   0  0  0  0  0  0  0  0  0  0  0  0
   21.7389   11.0834   -4.7684 H   0  0  0  0  0  0  0  0  0  0  0  0
   22.6373   13.5632   -4.0171 H   0  0  0  0  0  0  0  0  0  0  0  0
   23.1921   14.5075   -5.4408 H   0  0  0  0  0  0  0  0  0  0  0  0
   21.5596   13.7583   -5.4408 H   0  0  0  0  0  0  0  0  0  0  0  0
   22.4641    8.5186   -4.5967 H   0  0  0  0  0  0  0  0  0  0  0  0
   21.5145    8.6036   -6.1191 H   0  0  0  0  0  0  0  0  0  0  0  0
   23.1464    7.8528   -6.1191 H   0  0  0  0  0  0  0  0  0  0  0  0
 11  5  1  0
 11 12  2  0
 11 15  1  0
 12 13  1  0
 13 16  1  0
 13 14  1  0
 14 15  2  0
 16 17  2  0
 16 18  1  0
 17 19  1  0
 18 23  1  0
 18 20  2  0
 19 21  2  0
 20 21  1  0
 21 22  1  0
  5  1  1  0
  1  2  2  0
  1  7  1  0
  2  3  1  0
  3  4  1  0
  4  8  2  0
  4  6  1  0
  6 10  1  0
  6  7  2  0
  8  9  1  0
  9 10  2  0
  2 24  1  0
  3 25  1  0
  7 26  1  0
  9 27  1  0
 10 28  1  0
 14 29  1  0
 15 30  1  0
 17 31  1  0
 20 32  1  0
 22 33  1  1
 22 34  1  0
 22 35  1  0
 23 36  1  1
 23 37  1  0
 23 38  1  0
M  END
>  <Pose ID>  (530)
459

>  <Score>  (530)
-5.333764553070068

>  <smiles>  (530)
Cc1cc(C)c(-n2ccc(Oc3c[nH]c4nccc-4c3)n2)cn1

$$$$

     RDKit          3D

 38 41  0  0  0  0  0  0  0  0999 V2000
   27.0980    8.2220  -10.0490 C   0  0  0  0  0  0  0  0  0  0  0  0
   27.7990    7.2410  -10.7350 C   0  0  0  0  0  0  0  0  0  0  0  0
   28.8040    7.5990  -11.6270 N   0  0  0  0  0  0  0  0  0  0  0  0
   29.1050    8.9400  -11.8330 C   0  0  0  0  0  0  0  0  0  0  0  0
   26.0840    7.6840   -9.1450 O   0  0  0  0  0  0  0  0  0  0  0  0
   28.4020    9.9210  -11.1470 C   0  0  0  0  0  0  0  0  0  0  0  0
   27.3980    9.5630  -10.2530 C   0  0  0  0  0  0  0  0  0  0  0  0
   30.0180    9.5250  -12.6300 N   0  0  0  0  0  0  0  0  0  0  0  0
   29.9230   10.8910  -12.4830 C   0  0  0  0  0  0  0  0  0  0  0  0
   28.8760   10.9740  -11.5400 C   0  0  0  0  0  0  0  0  0  0  0  0
   25.4520    8.4270   -8.1400 C   0  0  0  0  0  0  0  0  0  0  0  0
   24.9970    9.6900   -8.4820 N   0  0  0  0  0  0  0  0  0  0  0  0
   24.4390   10.2600   -7.3530 N   0  0  0  0  0  0  0  0  0  0  0  0
   24.5320    9.3790   -6.3440 C   0  0  0  0  0  0  0  0  0  0  0  0
   25.1220    8.2740   -6.8050 C   0  0  0  0  0  0  0  0  0  0  0  0
   23.9370   11.4300   -7.3620 C   0  0  0  0  0  0  0  0  0  0  0  0
   24.0850   11.9990   -8.6230 C   0  0  0  0  0  0  0  0  0  0  0  0
   23.3400   12.1540   -6.3380 C   0  0  0  0  0  0  0  0  0  0  0  0
   22.8900   13.4490   -6.5730 C   0  0  0  0  0  0  0  0  0  0  0  0
   23.6340   13.2940   -8.8570 C   0  0  0  0  0  0  0  0  0  0  0  0
   23.0370   14.0180   -7.8320 N   0  0  0  0  0  0  0  0  0  0  0  0
   25.3910    7.0340   -5.9870 C   0  0  1  0  0  0  0  0  0  0  0  0
   22.2410   14.2360   -5.4610 C   0  0  1  0  0  0  0  0  0  0  0  0
   27.5598    6.1796  -10.5733 H   0  0  0  0  0  0  0  0  0  0  0  0
   29.3253    6.8703  -12.1350 H   0  0  0  0  0  0  0  0  0  0  0  0
   26.8425   10.3407   -9.7084 H   0  0  0  0  0  0  0  0  0  0  0  0
   30.5012   11.6929  -12.9654 H   0  0  0  0  0  0  0  0  0  0  0  0
   28.5047   11.9435  -11.1763 H   0  0  0  0  0  0  0  0  0  0  0  0
   24.1819    9.5403   -5.3138 H   0  0  0  0  0  0  0  0  0  0  0  0
   24.5580   11.4256   -9.4339 H   0  0  0  0  0  0  0  0  0  0  0  0
   23.2231   11.7034   -5.3414 H   0  0  0  0  0  0  0  0  0  0  0  0
   23.7500   13.7450   -9.8536 H   0  0  0  0  0  0  0  0  0  0  0  0
   25.3372    7.2820   -4.9167 H   0  0  0  0  0  0  0  0  0  0  0  0
   24.6382    6.2678   -6.2242 H   0  0  0  0  0  0  0  0  0  0  0  0
   26.3936    6.6487   -6.2242 H   0  0  0  0  0  0  0  0  0  0  0  0
   22.5695   13.8376   -4.4897 H   0  0  0  0  0  0  0  0  0  0  0  0
   22.5331   15.2935   -5.5413 H   0  0  0  0  0  0  0  0  0  0  0  0
   21.1473   14.1506   -5.5413 H   0  0  0  0  0  0  0  0  0  0  0  0
 11  5  1  0
 11 12  2  0
 11 15  1  0
 12 13  1  0
 13 16  1  0
 13 14  1  0
 14 15  2  0
 15 22  1  0
 16 17  2  0
 16 18  1  0
 17 20  1  0
 18 19  2  0
 19 21  1  0
 19 23  1  0
 20 21  2  0
  5  1  1  0
  1  2  2  0
  1  7  1  0
  2  3  1  0
  3  4  1  0
  4  8  2  0
  4  6  1  0
  6 10  1  0
  6  7  2  0
  8  9  1  0
  9 10  2  0
  2 24  1  0
  3 25  1  0
  7 26  1  0
  9 27  1  0
 10 28  1  0
 14 29  1  0
 17 30  1  0
 18 31  1  0
 20 32  1  0
 22 33  1  6
 22 34  1  0
 22 35  1  0
 23 36  1  1
 23 37  1  0
 23 38  1  0
M  END
>  <Pose ID>  (531)
434

>  <Score>  (531)
-5.331047534942627

>  <smiles>  (531)
Cc1cc(-n2cc(C)c(Oc3c[nH]c4nccc-4c3)n2)ccn1

$$$$

     RDKit          3D

 31 34  0  0  0  0  0  0  0  0999 V2000
   27.8420    7.8330  -10.2310 C   0  0  0  0  0  0  0  0  0  0  0  0
   28.8060    7.1210  -10.9320 C   0  0  0  0  0  0  0  0  0  0  0  0
   29.6350    7.7770  -11.8340 N   0  0  0  0  0  0  0  0  0  0  0  0
   29.5000    9.1460  -12.0350 C   0  0  0  0  0  0  0  0  0  0  0  0
   27.0590    7.0030   -9.3200 O   0  0  0  0  0  0  0  0  0  0  0  0
   28.5330    9.8590  -11.3320 C   0  0  0  0  0  0  0  0  0  0  0  0
   27.7060    9.2020  -10.4300 C   0  0  0  0  0  0  0  0  0  0  0  0
   30.1730    9.9910  -12.8400 N   0  0  0  0  0  0  0  0  0  0  0  0
   29.6560   11.2580  -12.6830 C   0  0  0  0  0  0  0  0  0  0  0  0
   28.6500   11.0060  -11.7250 C   0  0  0  0  0  0  0  0  0  0  0  0
   26.2420    7.5080   -8.3010 C   0  0  0  0  0  0  0  0  0  0  0  0
   25.4090    8.5650   -8.6280 N   0  0  0  0  0  0  0  0  0  0  0  0
   24.7570    8.9050   -7.5390 N   0  0  0  0  0  0  0  0  0  0  0  0
   25.0540    8.1430   -6.4170 C   0  0  0  0  0  0  0  0  0  0  0  0
   25.9950    7.2540   -6.9630 C   0  0  0  0  0  0  0  0  0  0  0  0
   23.8190    9.9280   -7.4550 C   0  0  0  0  0  0  0  0  0  0  0  0
   23.1790   10.1890   -6.2500 C   0  0  0  0  0  0  0  0  0  0  0  0
   23.4780    9.4260   -5.1270 C   0  0  0  0  0  0  0  0  0  0  0  0
   24.4140    8.4020   -5.2110 N   0  0  0  0  0  0  0  0  0  0  0  0
   22.7850    9.7090   -3.8170 C   0  0  1  0  0  0  0  0  0  0  0  0
   28.9135    6.0378  -10.7734 H   0  0  0  0  0  0  0  0  0  0  0  0
   30.3500    7.2486  -12.3540 H   0  0  0  0  0  0  0  0  0  0  0  0
   26.9430    9.7653   -9.8728 H   0  0  0  0  0  0  0  0  0  0  0  0
   29.9457   12.2018  -13.1681 H   0  0  0  0  0  0  0  0  0  0  0  0
   28.0002   11.8104  -11.3499 H   0  0  0  0  0  0  0  0  0  0  0  0
   26.4800    6.4483   -6.3924 H   0  0  0  0  0  0  0  0  0  0  0  0
   23.5834   10.5315   -8.3440 H   0  0  0  0  0  0  0  0  0  0  0  0
   22.4367   10.9982   -6.1845 H   0  0  0  0  0  0  0  0  0  0  0  0
   23.4502    9.4373   -2.9841 H   0  0  0  0  0  0  0  0  0  0  0  0
   22.5393   10.7795   -3.7559 H   0  0  0  0  0  0  0  0  0  0  0  0
   21.8602    9.1165   -3.7559 H   0  0  0  0  0  0  0  0  0  0  0  0
  5  1  1  0
  5 11  1  0
  1  2  2  0
  1  7  1  0
  2  3  1  0
  3  4  1  0
  4  8  2  0
  4  6  1  0
  6 10  1  0
  6  7  2  0
  8  9  1  0
  9 10  2  0
 11 12  2  0
 11 15  1  0
 12 13  1  0
 13 16  1  0
 13 14  1  0
 14 15  2  0
 14 19  1  0
 16 17  2  0
 17 18  1  0
 18 19  2  0
 18 20  1  0
  2 21  1  0
  3 22  1  0
  7 23  1  0
  9 24  1  0
 10 25  1  0
 15 26  1  0
 16 27  1  0
 17 28  1  0
 20 29  1  1
 20 30  1  0
 20 31  1  0
M  END
>  <Pose ID>  (532)
354

>  <Score>  (532)
-5.326587200164795

>  <smiles>  (532)
Cc1ccn2nc(Oc3c[nH]c4nccc-4c3)cc2n1

$$$$

     RDKit          3D

 28 30  0  0  0  0  0  0  0  0999 V2000
   27.5740    7.9720   -9.7120 C   0  0  0  0  0  0  0  0  0  0  0  0
   26.8560    7.0140   -9.0070 N   0  0  0  0  0  0  0  0  0  0  0  0
   26.0900    7.3870   -7.9120 C   0  0  0  0  0  0  0  0  0  0  0  0
   26.0390    8.7190   -7.5210 C   0  0  0  0  0  0  0  0  0  0  0  0
   25.2890    9.0370   -6.3610 C   0  0  0  0  0  0  0  0  0  0  0  0
   24.5900    8.0480   -5.6790 C   0  0  0  0  0  0  0  0  0  0  0  0
   24.6410    6.7320   -6.1230 C   0  0  0  0  0  0  0  0  0  0  0  0
   25.3850    6.4040   -7.2470 C   0  0  0  0  0  0  0  0  0  0  0  0
   27.5240    9.3040   -9.3210 C   0  0  0  0  0  0  0  0  0  0  0  0
   26.7570    9.6790   -8.2230 C   0  0  0  0  0  0  0  0  0  0  0  0
   28.3320    7.6050  -10.7950 N   0  0  0  0  0  0  0  0  0  0  0  0
   29.0900    8.4230  -11.5200 C   0  0  0  0  0  0  0  0  0  0  0  0
   30.4810    8.3090  -11.6730 N   0  0  0  0  0  0  0  0  0  0  0  0
   30.8160    9.3410  -12.4580 O   0  0  0  0  0  0  0  0  0  0  0  0
   29.8100   10.0500  -12.8020 C   0  0  0  0  0  0  0  0  0  0  0  0
   28.6670    9.4640  -12.2430 C   0  0  0  0  0  0  0  0  0  0  0  0
   23.7770    8.4010   -4.4580 C   0  0  1  0  0  0  0  0  0  0  0  0
   25.2599   10.0748   -5.9976 H   0  0  0  0  0  0  0  0  0  0  0  0
   24.0901    5.9486   -5.5819 H   0  0  0  0  0  0  0  0  0  0  0  0
   25.4130    5.3649   -7.6068 H   0  0  0  0  0  0  0  0  0  0  0  0
   28.0913   10.0627   -9.8801 H   0  0  0  0  0  0  0  0  0  0  0  0
   26.7190   10.7332   -7.9112 H   0  0  0  0  0  0  0  0  0  0  0  0
   28.3125    6.6125  -11.0698 H   0  0  0  0  0  0  0  0  0  0  0  0
   29.8368   10.9565  -13.4245 H   0  0  0  0  0  0  0  0  0  0  0  0
   27.6263    9.7955  -12.3735 H   0  0  0  0  0  0  0  0  0  0  0  0
   24.3493    8.1525   -3.5520 H   0  0  0  0  0  0  0  0  0  0  0  0
   23.5522    9.4778   -4.4659 H   0  0  0  0  0  0  0  0  0  0  0  0
   22.8368    7.8301   -4.4659 H   0  0  0  0  0  0  0  0  0  0  0  0
  1 11  1  0
  1  9  1  0
  1  2  2  0
  2  3  1  0
  3  4  2  0
  3  8  1  0
  4 10  1  0
  4  5  1  0
  5  6  2  0
  6  7  1  0
  6 17  1  0
  7  8  2  0
  9 10  2  0
 11 12  1  0
 12 16  1  0
 12 13  2  0
 13 14  1  0
 14 15  1  0
 15 16  2  0
  5 18  1  0
  7 19  1  0
  8 20  1  0
  9 21  1  0
 10 22  1  0
 11 23  1  0
 15 24  1  0
 16 25  1  0
 17 26  1  1
 17 27  1  0
 17 28  1  0
M  END
>  <Pose ID>  (533)
11

>  <Score>  (533)
-5.321221351623535

>  <smiles>  (533)
Cc1ccc2nc(Nc3ccon3)ccc2c1

$$$$

     RDKit          3D

 37 40  0  0  0  0  0  0  0  0999 V2000
   27.6020    7.7190  -10.1670 C   0  0  0  0  0  0  0  0  0  0  0  0
   28.5660    7.1450  -10.9840 C   0  0  0  0  0  0  0  0  0  0  0  0
   29.2930    7.9390  -11.8640 N   0  0  0  0  0  0  0  0  0  0  0  0
   29.0570    9.3060  -11.9250 C   0  0  0  0  0  0  0  0  0  0  0  0
   26.9340    6.7550   -9.2960 O   0  0  0  0  0  0  0  0  0  0  0  0
   28.0900    9.8810  -11.1050 C   0  0  0  0  0  0  0  0  0  0  0  0
   27.3660    9.0870  -10.2250 C   0  0  0  0  0  0  0  0  0  0  0  0
   29.6210   10.2680  -12.6810 N   0  0  0  0  0  0  0  0  0  0  0  0
   29.0330   11.4750  -12.3740 C   0  0  0  0  0  0  0  0  0  0  0  0
   28.1070   11.0650  -11.3910 C   0  0  0  0  0  0  0  0  0  0  0  0
   26.1490    7.1050   -8.1910 C   0  0  0  0  0  0  0  0  0  0  0  0
   25.2290    8.1260   -8.3680 N   0  0  0  0  0  0  0  0  0  0  0  0
   24.6260    8.3180   -7.2240 N   0  0  0  0  0  0  0  0  0  0  0  0
   25.0520    7.4800   -6.2010 C   0  0  0  0  0  0  0  0  0  0  0  0
   26.0010    6.7130   -6.8730 C   0  0  0  0  0  0  0  0  0  0  0  0
   23.6280    9.2560   -6.9830 C   0  0  0  0  0  0  0  0  0  0  0  0
   23.0550    9.3550   -5.7210 C   0  0  0  0  0  0  0  0  0  0  0  0
   23.4810    8.5150   -4.6970 C   0  0  0  0  0  0  0  0  0  0  0  0
   24.4800    7.5780   -4.9380 C   0  0  0  0  0  0  0  0  0  0  0  0
   22.0760   10.1810   -5.2440 N   0  0  0  0  0  0  0  0  0  0  0  0
   22.4290   11.3090   -4.3690 C   0  0  1  0  0  0  0  0  0  0  0  0
   20.6910    9.6990   -5.2780 C   0  0  1  0  0  0  0  0  0  0  0  0
   28.7548    6.0624  -10.9354 H   0  0  0  0  0  0  0  0  0  0  0  0
   30.0074    7.5127  -12.4713 H   0  0  0  0  0  0  0  0  0  0  0  0
   26.6052    9.5415   -9.5735 H   0  0  0  0  0  0  0  0  0  0  0  0
   29.2300   12.4778  -12.7810 H   0  0  0  0  0  0  0  0  0  0  0  0
   27.4304   11.7830  -10.9045 H   0  0  0  0  0  0  0  0  0  0  0  0
   26.5667    5.8914   -6.4094 H   0  0  0  0  0  0  0  0  0  0  0  0
   23.2917    9.9205   -7.7925 H   0  0  0  0  0  0  0  0  0  0  0  0
   23.0280    8.5919   -3.6976 H   0  0  0  0  0  0  0  0  0  0  0  0
   24.8177    6.9140   -4.1286 H   0  0  0  0  0  0  0  0  0  0  0  0
   22.3327   11.0013   -3.3173 H   0  0  0  0  0  0  0  0  0  0  0  0
   23.4663   11.6165   -4.5676 H   0  0  0  0  0  0  0  0  0  0  0  0
   21.7520   12.1529   -4.5676 H   0  0  0  0  0  0  0  0  0  0  0  0
   20.3221    9.5706   -4.2497 H   0  0  0  0  0  0  0  0  0  0  0  0
   20.0609   10.4307   -5.8049 H   0  0  0  0  0  0  0  0  0  0  0  0
   20.6513    8.7342   -5.8049 H   0  0  0  0  0  0  0  0  0  0  0  0
 11  5  1  0
 11 12  2  0
 11 15  1  0
 12 13  1  0
 13 16  1  0
 13 14  1  0
 14 15  2  0
 14 19  1  0
 16 17  2  0
 17 20  1  0
 17 18  1  0
 18 19  2  0
 20 22  1  0
 20 21  1  0
  5  1  1  0
  1  2  2  0
  1  7  1  0
  2  3  1  0
  3  4  1  0
  4  8  2  0
  4  6  1  0
  6 10  1  0
  6  7  2  0
  8  9  1  0
  9 10  2  0
  2 23  1  0
  3 24  1  0
  7 25  1  0
  9 26  1  0
 10 27  1  0
 15 28  1  0
 16 29  1  0
 18 30  1  0
 19 31  1  0
 21 32  1  1
 21 33  1  0
 21 34  1  0
 22 35  1  1
 22 36  1  0
 22 37  1  0
M  END
>  <Pose ID>  (534)
335

>  <Score>  (534)
-5.309695720672607

>  <smiles>  (534)
CN(C)c1ccc2cc(Oc3c[nH]c4nccc-4c3)nn2c1

$$$$

     RDKit          3D

 34 36  0  0  0  0  0  0  0  0999 V2000
   27.6520   10.3420  -10.0890 C   0  0  0  0  0  0  0  0  0  0  0  0
   27.3860    9.0700   -9.6000 N   0  0  0  0  0  0  0  0  0  0  0  0
   28.3480   10.5020  -11.2790 N   0  0  0  0  0  0  0  0  0  0  0  0
   27.8050    7.9510  -10.3260 C   0  0  0  0  0  0  0  0  0  0  0  0
   28.5150    8.1090  -11.4960 C   0  0  0  0  0  0  0  0  0  0  0  0
   28.7790    9.3820  -11.9830 C   0  0  0  0  0  0  0  0  0  0  0  0
   27.5380    6.8080   -9.9170 O   0  0  0  0  0  0  0  0  0  0  0  0
   26.7730    8.7140   -8.3970 C   0  0  0  0  0  0  0  0  0  0  0  0
   25.5210    8.1120   -8.4320 C   0  0  0  0  0  0  0  0  0  0  0  0
   27.4550    8.8300   -7.1920 C   0  0  0  0  0  0  0  0  0  0  0  0
   24.9590    7.6170   -7.2040 C   0  0  0  0  0  0  0  0  0  0  0  0
   25.7330    7.7900   -6.0630 C   0  0  0  0  0  0  0  0  0  0  0  0
   26.8850    8.3430   -6.0210 N   0  0  0  0  0  0  0  0  0  0  0  0
   25.2660    7.3420   -4.8330 N   0  0  0  0  0  0  0  0  0  0  0  0
   24.0280    6.7190   -4.7420 C   0  0  0  0  0  0  0  0  0  0  0  0
   23.2550    6.5440   -5.8840 N   0  0  0  0  0  0  0  0  0  0  0  0
   23.7060    6.9910   -7.1150 C   0  0  0  0  0  0  0  0  0  0  0  0
   27.1260   11.2740   -9.2200 O   0  0  0  0  0  0  0  0  0  0  0  0
   27.1020   12.6240   -9.8520 C   0  0  1  0  0  0  0  0  0  0  0  0
   26.2600   13.4250   -8.7920 C   0  0  1  0  0  0  0  0  0  0  0  0
   28.5250   13.1670   -9.9500 C   0  0  1  0  0  0  0  0  0  0  0  0
   28.8731    7.2256  -12.0449 H   0  0  0  0  0  0  0  0  0  0  0  0
   29.3299    9.5054  -12.9271 H   0  0  0  0  0  0  0  0  0  0  0  0
   24.9709    8.0160   -9.3797 H   0  0  0  0  0  0  0  0  0  0  0  0
   28.4458    9.3071   -7.1644 H   0  0  0  0  0  0  0  0  0  0  0  0
   23.6598    6.3647   -3.7679 H   0  0  0  0  0  0  0  0  0  0  0  0
   23.0877    6.8566   -8.0148 H   0  0  0  0  0  0  0  0  0  0  0  0
   26.6940   12.6640  -10.8727 H   0  0  0  0  0  0  0  0  0  0  0  0
   26.5701   13.1300   -7.7787 H   0  0  0  0  0  0  0  0  0  0  0  0
   26.4296   14.5033   -8.9280 H   0  0  0  0  0  0  0  0  0  0  0  0
   25.1915   13.2018   -8.9280 H   0  0  0  0  0  0  0  0  0  0  0  0
   28.9291   13.3212   -8.9386 H   0  0  0  0  0  0  0  0  0  0  0  0
   29.1560   12.4465  -10.4910 H   0  0  0  0  0  0  0  0  0  0  0  0
   28.5156   14.1247  -10.4910 H   0  0  0  0  0  0  0  0  0  0  0  0
  1  3  2  0
  1  2  1  0
  1 18  1  0
  2  4  1  0
  2  8  1  0
  3  6  1  0
  4  5  1  0
  4  7  2  0
  5  6  2  0
  8  9  2  0
  8 10  1  0
  9 11  1  0
 10 13  2  0
 11 17  2  0
 11 12  1  0
 12 13  1  0
 12 14  2  0
 14 15  1  0
 15 16  2  0
 16 17  1  0
 18 19  1  0
 19 21  1  0
 19 20  1  0
  5 22  1  0
  6 23  1  0
  9 24  1  0
 10 25  1  0
 15 26  1  0
 17 27  1  0
 19 28  1  6
 20 29  1  1
 20 30  1  0
 20 31  1  0
 21 32  1  1
 21 33  1  0
 21 34  1  0
M  END
>  <Pose ID>  (535)
8

>  <Score>  (535)
-5.307886600494385

>  <smiles>  (535)
CC(C)Oc1nccc(=O)n1-c1cnc2ncncc2c1

$$$$

     RDKit          3D

 20 21  0  0  0  0  0  0  0  0999 V2000
   29.1820    7.2470  -11.0660 C   0  0  0  0  0  0  0  0  0  0  0  0
   28.2580    7.0330  -10.0500 N   0  0  0  0  0  0  0  0  0  0  0  0
   27.3000    7.9990   -9.7680 C   0  0  0  0  0  0  0  0  0  0  0  0
   27.2650    9.1780  -10.5030 C   0  0  0  0  0  0  0  0  0  0  0  0
   26.3050   10.1520  -10.1370 C   0  0  0  0  0  0  0  0  0  0  0  0
   25.4030    9.9040   -9.1100 C   0  0  0  0  0  0  0  0  0  0  0  0
   25.4500    8.6970   -8.4220 C   0  0  0  0  0  0  0  0  0  0  0  0
   26.3980    7.7410   -8.7580 C   0  0  0  0  0  0  0  0  0  0  0  0
   29.1480    8.4260  -11.8000 C   0  0  0  0  0  0  0  0  0  0  0  0
   28.1890    9.3930  -11.5180 C   0  0  0  0  0  0  0  0  0  0  0  0
   28.1520   10.6740  -12.3140 C   0  0  1  0  0  0  0  0  0  0  0  0
   29.9407    6.4824  -11.2890 H   0  0  0  0  0  0  0  0  0  0  0  0
   26.2730   11.1135  -10.6704 H   0  0  0  0  0  0  0  0  0  0  0  0
   24.6524   10.6619   -8.8415 H   0  0  0  0  0  0  0  0  0  0  0  0
   24.7347    8.4994   -7.6101 H   0  0  0  0  0  0  0  0  0  0  0  0
   26.4296    6.7816   -8.2208 H   0  0  0  0  0  0  0  0  0  0  0  0
   29.8794    8.5947  -12.6041 H   0  0  0  0  0  0  0  0  0  0  0  0
   28.1272   11.5323  -11.6265 H   0  0  0  0  0  0  0  0  0  0  0  0
   29.0487   10.7378  -12.9480 H   0  0  0  0  0  0  0  0  0  0  0  0
   27.2531   10.6859  -12.9480 H   0  0  0  0  0  0  0  0  0  0  0  0
  1  9  2  0
  1  2  1  0
  2  3  2  0
  3  4  1  0
  3  8  1  0
  4 10  2  0
  4  5  1  0
  5  6  2  0
  6  7  1  0
  7  8  2  0
  9 10  1  0
 10 11  1  0
  1 12  1  0
  5 13  1  0
  6 14  1  0
  7 15  1  0
  8 16  1  0
  9 17  1  0
 11 18  1  1
 11 19  1  0
 11 20  1  0
M  END
>  <Pose ID>  (536)
5

>  <Score>  (536)
-5.301656723022461

>  <smiles>  (536)
Cc1ccnc2ccccc12

$$$$

     RDKit          3D

 29 31  0  0  0  0  0  0  0  0999 V2000
   27.8530    7.8740  -10.2410 C   0  0  0  0  0  0  0  0  0  0  0  0
   28.7970    7.1400  -10.9480 C   0  0  0  0  0  0  0  0  0  0  0  0
   29.6430    7.7780  -11.8460 N   0  0  0  0  0  0  0  0  0  0  0  0
   29.5440    9.1520  -12.0390 C   0  0  0  0  0  0  0  0  0  0  0  0
   27.0490    7.0590   -9.3320 O   0  0  0  0  0  0  0  0  0  0  0  0
   28.5980    9.8860  -11.3310 C   0  0  0  0  0  0  0  0  0  0  0  0
   27.7540    9.2460  -10.4320 C   0  0  0  0  0  0  0  0  0  0  0  0
   30.2380    9.9830  -12.8400 N   0  0  0  0  0  0  0  0  0  0  0  0
   29.7570   11.2630  -12.6730 C   0  0  0  0  0  0  0  0  0  0  0  0
   28.7450   11.0320  -11.7160 C   0  0  0  0  0  0  0  0  0  0  0  0
   26.2490    7.5800   -8.3110 C   0  0  0  0  0  0  0  0  0  0  0  0
   25.4440    8.6620   -8.6290 N   0  0  0  0  0  0  0  0  0  0  0  0
   24.7640    9.0380   -7.4840 N   0  0  0  0  0  0  0  0  0  0  0  0
   25.1200    8.2120   -6.4900 C   0  0  0  0  0  0  0  0  0  0  0  0
   25.9960    7.3250   -6.9730 C   0  0  0  0  0  0  0  0  0  0  0  0
   23.8430   10.1460   -7.5030 C   0  0  1  0  0  0  0  0  0  0  0  0
   30.1900   12.5510  -13.3290 C   0  0  1  0  0  0  0  0  0  0  0  0
   28.8745    6.0532  -10.7966 H   0  0  0  0  0  0  0  0  0  0  0  0
   30.3437    7.2337  -12.3691 H   0  0  0  0  0  0  0  0  0  0  0  0
   27.0067    9.8265   -9.8710 H   0  0  0  0  0  0  0  0  0  0  0  0
   28.1171   11.8509  -11.3350 H   0  0  0  0  0  0  0  0  0  0  0  0
   24.7538    8.2564   -5.4537 H   0  0  0  0  0  0  0  0  0  0  0  0
   26.4507    6.5096   -6.3914 H   0  0  0  0  0  0  0  0  0  0  0  0
   23.5999   10.4385   -6.4708 H   0  0  0  0  0  0  0  0  0  0  0  0
   24.3037   10.9968   -8.0263 H   0  0  0  0  0  0  0  0  0  0  0  0
   22.9223    9.8486   -8.0263 H   0  0  0  0  0  0  0  0  0  0  0  0
   30.4389   13.2914  -12.5545 H   0  0  0  0  0  0  0  0  0  0  0  0
   31.0747   12.3641  -13.9554 H   0  0  0  0  0  0  0  0  0  0  0  0
   29.3721   12.9365  -13.9554 H   0  0  0  0  0  0  0  0  0  0  0  0
  1  2  2  0
  1  7  1  0
  1  5  1  0
  2  3  1  0
  3  4  1  0
  4  8  2  0
  4  6  1  0
  6 10  1  0
  6  7  2  0
  8  9  1  0
  9 17  1  0
  9 10  2  0
  5 11  1  0
 11 12  2  0
 11 15  1  0
 12 13  1  0
 13 16  1  0
 13 14  1  0
 14 15  2  0
  2 18  1  0
  3 19  1  0
  7 20  1  0
 10 21  1  0
 14 22  1  0
 15 23  1  0
 16 24  1  1
 16 25  1  0
 16 26  1  0
 17 27  1  1
 17 28  1  0
 17 29  1  0
M  END
>  <Pose ID>  (537)
472

>  <Score>  (537)
-5.300623416900635

>  <smiles>  (537)
Cc1cc2cc(Oc3ccn(C)n3)c[nH]c-2n1

$$$$

     RDKit          3D

 34 36  0  0  0  0  0  0  0  0999 V2000
   27.6480   10.3460  -10.0880 C   0  0  0  0  0  0  0  0  0  0  0  0
   27.3830    9.0730   -9.5990 N   0  0  0  0  0  0  0  0  0  0  0  0
   28.3480   10.5050  -11.2760 N   0  0  0  0  0  0  0  0  0  0  0  0
   27.8050    7.9540  -10.3240 C   0  0  0  0  0  0  0  0  0  0  0  0
   28.5180    8.1130  -11.4910 C   0  0  0  0  0  0  0  0  0  0  0  0
   28.7820    9.3850  -11.9780 C   0  0  0  0  0  0  0  0  0  0  0  0
   27.5380    6.8120   -9.9140 O   0  0  0  0  0  0  0  0  0  0  0  0
   26.7660    8.7180   -8.3980 C   0  0  0  0  0  0  0  0  0  0  0  0
   25.5150    8.1140   -8.4360 C   0  0  0  0  0  0  0  0  0  0  0  0
   27.4450    8.8350   -7.1910 C   0  0  0  0  0  0  0  0  0  0  0  0
   24.9500    7.6180   -7.2100 C   0  0  0  0  0  0  0  0  0  0  0  0
   25.7200    7.7930   -6.0660 C   0  0  0  0  0  0  0  0  0  0  0  0
   26.8720    8.3470   -6.0210 N   0  0  0  0  0  0  0  0  0  0  0  0
   25.2510    7.3450   -4.8370 N   0  0  0  0  0  0  0  0  0  0  0  0
   24.0120    6.7210   -4.7500 C   0  0  0  0  0  0  0  0  0  0  0  0
   23.2430    6.5450   -5.8940 N   0  0  0  0  0  0  0  0  0  0  0  0
   23.6980    6.9910   -7.1240 C   0  0  0  0  0  0  0  0  0  0  0  0
   27.1190   11.2770   -9.2210 O   0  0  0  0  0  0  0  0  0  0  0  0
   27.0960   12.6270   -9.8530 C   0  0  1  0  0  0  0  0  0  0  0  0
   26.2500   13.4270   -8.7970 C   0  0  1  0  0  0  0  0  0  0  0  0
   27.0010   14.6160   -8.1820 C   0  0  1  0  0  0  0  0  0  0  0  0
   28.8791    7.2298  -12.0383 H   0  0  0  0  0  0  0  0  0  0  0  0
   29.3353    9.5082  -12.9207 H   0  0  0  0  0  0  0  0  0  0  0  0
   24.9676    8.0172   -9.3852 H   0  0  0  0  0  0  0  0  0  0  0  0
   28.4351    9.3133   -7.1608 H   0  0  0  0  0  0  0  0  0  0  0  0
   23.6407    6.3670   -3.7769 H   0  0  0  0  0  0  0  0  0  0  0  0
   23.0828    6.8547   -8.0257 H   0  0  0  0  0  0  0  0  0  0  0  0
   28.1090   13.0422   -9.9597 H   0  0  0  0  0  0  0  0  0  0  0  0
   26.6887   12.6466  -10.8746 H   0  0  0  0  0  0  0  0  0  0  0  0
   25.3441   13.8064   -9.2924 H   0  0  0  0  0  0  0  0  0  0  0  0
   26.0180   12.7324   -7.9762 H   0  0  0  0  0  0  0  0  0  0  0  0
   26.9585   14.5487   -7.0849 H   0  0  0  0  0  0  0  0  0  0  0  0
   28.0507   14.5961   -8.5102 H   0  0  0  0  0  0  0  0  0  0  0  0
   26.5320   15.5553   -8.5102 H   0  0  0  0  0  0  0  0  0  0  0  0
  1  3  2  0
  1  2  1  0
  1 18  1  0
  2  4  1  0
  2  8  1  0
  3  6  1  0
  4  5  1  0
  4  7  2  0
  5  6  2  0
  8  9  2  0
  8 10  1  0
  9 11  1  0
 10 13  2  0
 11 17  2  0
 11 12  1  0
 12 13  1  0
 12 14  2  0
 14 15  1  0
 15 16  2  0
 16 17  1  0
 18 19  1  0
 19 20  1  0
 20 21  1  0
  5 22  1  0
  6 23  1  0
  9 24  1  0
 10 25  1  0
 15 26  1  0
 17 27  1  0
 19 28  1  6
 19 29  1  0
 20 30  1  6
 20 31  1  0
 21 32  1  1
 21 33  1  0
 21 34  1  0
M  END
>  <Pose ID>  (538)
7

>  <Score>  (538)
-5.297770977020264

>  <smiles>  (538)
CCCOc1nccc(=O)n1-c1cnc2ncncc2c1

$$$$

     RDKit          3D

 27 29  0  0  0  0  0  0  0  0999 V2000
   27.4940    8.1860   -9.4210 C   0  0  0  0  0  0  0  0  0  0  0  0
   26.7000    7.4840   -8.5230 N   0  0  0  0  0  0  0  0  0  0  0  0
   26.0370    8.1600   -7.5080 C   0  0  0  0  0  0  0  0  0  0  0  0
   25.3070    7.3860   -6.6470 C   0  0  0  0  0  0  0  0  0  0  0  0
   24.5940    7.9630   -5.6040 N   0  0  0  0  0  0  0  0  0  0  0  0
   24.6240    9.3380   -5.4170 C   0  0  0  0  0  0  0  0  0  0  0  0
   25.3690   10.1410   -6.2730 C   0  0  0  0  0  0  0  0  0  0  0  0
   26.1670    9.5390   -7.3900 C   0  0  0  0  0  0  0  0  0  0  0  0
   27.6270    9.5650   -9.3030 C   0  0  0  0  0  0  0  0  0  0  0  0
   26.9620   10.2410   -8.2880 C   0  0  0  0  0  0  0  0  0  0  0  0
   28.2380    7.7520  -10.4920 N   0  0  0  0  0  0  0  0  0  0  0  0
   28.9920    8.3800  -11.3060 C   0  0  0  0  0  0  0  0  0  0  0  0
   30.3780    8.2210  -11.4700 N   0  0  0  0  0  0  0  0  0  0  0  0
   30.7400    9.0970  -12.4140 O   0  0  0  0  0  0  0  0  0  0  0  0
   29.7340    9.7670  -12.8530 C   0  0  0  0  0  0  0  0  0  0  0  0
   28.5900    9.3150  -12.1970 C   0  0  0  0  0  0  0  0  0  0  0  0
   25.2770    5.8900   -6.8320 C   0  0  1  0  0  0  0  0  0  0  0  0
   24.0578    9.7927   -4.5908 H   0  0  0  0  0  0  0  0  0  0  0  0
   25.3729   11.2315   -6.1289 H   0  0  0  0  0  0  0  0  0  0  0  0
   28.2581   10.1200  -10.0127 H   0  0  0  0  0  0  0  0  0  0  0  0
   27.0647   11.3322   -8.1950 H   0  0  0  0  0  0  0  0  0  0  0  0
   28.1753    6.7392  -10.6684 H   0  0  0  0  0  0  0  0  0  0  0  0
   29.7700   10.5599  -13.6146 H   0  0  0  0  0  0  0  0  0  0  0  0
   27.5580    9.6538  -12.3707 H   0  0  0  0  0  0  0  0  0  0  0  0
   25.2672    5.3990   -5.8477 H   0  0  0  0  0  0  0  0  0  0  0  0
   24.3730    5.6078   -7.3916 H   0  0  0  0  0  0  0  0  0  0  0  0
   26.1689    5.5718   -7.3916 H   0  0  0  0  0  0  0  0  0  0  0  0
  1 11  1  0
  1  9  1  0
  1  2  2  0
  2  3  1  0
  3  8  2  0
  3  4  1  0
  4 17  1  0
  4  5  2  0
  5  6  1  0
  6  7  2  0
  7  8  1  0
  8 10  1  0
  9 10  2  0
 11 12  1  0
 12 16  1  0
 12 13  2  0
 13 14  1  0
 14 15  1  0
 15 16  2  0
  6 18  1  0
  7 19  1  0
  9 20  1  0
 10 21  1  0
 11 22  1  0
 15 23  1  0
 16 24  1  0
 17 25  1  1
 17 26  1  0
 17 27  1  0
M  END
>  <Pose ID>  (539)
25

>  <Score>  (539)
-5.296273708343506

>  <smiles>  (539)
Cc1nccc2ccc(Nc3ccon3)nc12

$$$$

     RDKit          3D

 25 27  0  0  0  0  0  0  0  0999 V2000
   27.5730    7.9840   -9.7160 C   0  0  0  0  0  0  0  0  0  0  0  0
   26.8520    7.0280   -9.0120 N   0  0  0  0  0  0  0  0  0  0  0  0
   26.0890    7.4020   -7.9150 C   0  0  0  0  0  0  0  0  0  0  0  0
   26.0440    8.7340   -7.5210 C   0  0  0  0  0  0  0  0  0  0  0  0
   25.2970    9.0530   -6.3600 C   0  0  0  0  0  0  0  0  0  0  0  0
   24.5950    8.0650   -5.6780 C   0  0  0  0  0  0  0  0  0  0  0  0
   24.6400    6.7500   -6.1250 C   0  0  0  0  0  0  0  0  0  0  0  0
   25.3810    6.4210   -7.2500 C   0  0  0  0  0  0  0  0  0  0  0  0
   27.5290    9.3160   -9.3220 C   0  0  0  0  0  0  0  0  0  0  0  0
   26.7650    9.6920   -8.2230 C   0  0  0  0  0  0  0  0  0  0  0  0
   28.3280    7.6160  -10.8010 N   0  0  0  0  0  0  0  0  0  0  0  0
   29.0880    8.4320  -11.5250 C   0  0  0  0  0  0  0  0  0  0  0  0
   30.4780    8.3120  -11.6810 N   0  0  0  0  0  0  0  0  0  0  0  0
   30.8170    9.3440  -12.4640 O   0  0  0  0  0  0  0  0  0  0  0  0
   29.8130   10.0580  -12.8060 C   0  0  0  0  0  0  0  0  0  0  0  0
   28.6680    9.4760  -12.2460 C   0  0  0  0  0  0  0  0  0  0  0  0
   25.2721   10.0904   -5.9952 H   0  0  0  0  0  0  0  0  0  0  0  0
   24.0052    8.3240   -4.7863 H   0  0  0  0  0  0  0  0  0  0  0  0
   24.0863    5.9679   -5.5849 H   0  0  0  0  0  0  0  0  0  0  0  0
   25.4046    5.3823   -7.6112 H   0  0  0  0  0  0  0  0  0  0  0  0
   28.0991   10.0733   -9.8801 H   0  0  0  0  0  0  0  0  0  0  0  0
   26.7314   10.7459   -7.9098 H   0  0  0  0  0  0  0  0  0  0  0  0
   28.3040    6.6242  -11.0779 H   0  0  0  0  0  0  0  0  0  0  0  0
   29.8427   10.9651  -13.4275 H   0  0  0  0  0  0  0  0  0  0  0  0
   27.6285    9.8121  -12.3745 H   0  0  0  0  0  0  0  0  0  0  0  0
  1 11  1  0
  1  9  1  0
  1  2  2  0
  2  3  1  0
  3  4  2  0
  3  8  1  0
  4 10  1  0
  4  5  1  0
  5  6  2  0
  6  7  1  0
  7  8  2  0
  9 10  2  0
 11 12  1  0
 12 16  1  0
 12 13  2  0
 13 14  1  0
 14 15  1  0
 15 16  2  0
  5 17  1  0
  6 18  1  0
  7 19  1  0
  8 20  1  0
  9 21  1  0
 10 22  1  0
 11 23  1  0
 15 24  1  0
 16 25  1  0
M  END
>  <Pose ID>  (540)
8

>  <Score>  (540)
-5.29449987411499

>  <smiles>  (540)
c1ccc2nc(Nc3ccon3)ccc2c1

$$$$

     RDKit          3D

 37 39  0  0  0  0  0  0  0  0999 V2000
   27.8380    7.8800   -9.8190 C   0  0  0  0  0  0  0  0  0  0  0  0
   26.9390    6.8240   -9.8280 N   0  0  0  0  0  0  0  0  0  0  0  0
   26.1690    6.5520   -8.7040 C   0  0  0  0  0  0  0  0  0  0  0  0
   27.9690    8.6690   -8.6780 N   0  0  0  0  0  0  0  0  0  0  0  0
   26.3030    7.3390   -7.5650 C   0  0  0  0  0  0  0  0  0  0  0  0
   27.1190    8.3780   -7.5470 C   0  0  0  0  0  0  0  0  0  0  0  0
   28.5280    8.1240  -10.8240 O   0  0  0  0  0  0  0  0  0  0  0  0
   25.5750    7.0320   -6.4410 N   0  0  0  0  0  0  0  0  0  0  0  0
   24.3020    7.5590   -6.1280 C   0  0  0  0  0  0  0  0  0  0  0  0
   23.1750    6.8080   -5.8150 N   0  0  0  0  0  0  0  0  0  0  0  0
   21.9760    7.4460   -5.5180 C   0  0  0  0  0  0  0  0  0  0  0  0
   21.9060    8.8350   -5.5350 C   0  0  0  0  0  0  0  0  0  0  0  0
   23.0340    9.5850   -5.8470 C   0  0  0  0  0  0  0  0  0  0  0  0
   24.2380    8.9420   -6.1160 C   0  0  0  0  0  0  0  0  0  0  0  0
   20.5990    9.2340   -5.2030 C   0  0  0  0  0  0  0  0  0  0  0  0
   19.4580    8.8810   -5.6840 N   0  0  0  0  0  0  0  0  0  0  0  0
   18.5080    9.5800   -4.9240 O   0  0  0  0  0  0  0  0  0  0  0  0
   20.4310   10.2050   -4.0770 C   0  0  0  0  0  0  0  0  0  0  0  0
   18.9410   10.3490   -4.0560 C   0  0  0  0  0  0  0  0  0  0  0  0
   18.1300   11.2500   -3.1590 C   0  0  1  0  0  0  0  0  0  0  0  0
   19.1310   12.3250   -2.6050 C   0  0  1  0  0  0  0  0  0  0  0  0
   22.9540   11.0910   -5.8930 C   0  0  1  0  0  0  0  0  0  0  0  0
   25.4546    5.7156   -8.7148 H   0  0  0  0  0  0  0  0  0  0  0  0
   28.6529    9.4383   -8.6421 H   0  0  0  0  0  0  0  0  0  0  0  0
   27.1514    9.0287   -6.6607 H   0  0  0  0  0  0  0  0  0  0  0  0
   25.9898    6.3654   -5.7743 H   0  0  0  0  0  0  0  0  0  0  0  0
   21.0835    6.8528   -5.2698 H   0  0  0  0  0  0  0  0  0  0  0  0
   25.1422    9.5344   -6.3198 H   0  0  0  0  0  0  0  0  0  0  0  0
   21.1916   10.6812   -3.4408 H   0  0  0  0  0  0  0  0  0  0  0  0
   17.3260   11.7357   -3.7314 H   0  0  0  0  0  0  0  0  0  0  0  0
   17.6547   10.6846   -2.3439 H   0  0  0  0  0  0  0  0  0  0  0  0
   19.1154   12.3082   -1.5052 H   0  0  0  0  0  0  0  0  0  0  0  0
   20.1468   12.0979   -2.9608 H   0  0  0  0  0  0  0  0  0  0  0  0
   18.8322   13.3221   -2.9608 H   0  0  0  0  0  0  0  0  0  0  0  0
   22.9329   11.4885   -4.8676 H   0  0  0  0  0  0  0  0  0  0  0  0
   23.8323   11.4888   -6.4225 H   0  0  0  0  0  0  0  0  0  0  0  0
   22.0385   11.3936   -6.4225 H   0  0  0  0  0  0  0  0  0  0  0  0
  8  5  1  0
  8  9  1  0
  9 14  1  0
  9 10  2  0
 10 11  1  0
 11 12  2  0
 12 13  1  0
 12 15  1  0
 13 14  2  0
 13 22  1  0
  1  7  2  0
  1  2  1  0
  1  4  1  0
  2  3  2  0
  3  5  1  0
  4  6  1  0
  5  6  2  0
 15 16  2  0
 15 18  1  0
 16 17  1  0
 17 19  1  0
 18 19  2  0
 19 20  1  0
 20 21  1  0
  3 23  1  0
  4 24  1  0
  6 25  1  0
  8 26  1  0
 11 27  1  0
 14 28  1  0
 18 29  1  0
 20 30  1  6
 20 31  1  0
 21 32  1  1
 21 33  1  0
 21 34  1  0
 22 35  1  1
 22 36  1  0
 22 37  1  0
M  END
>  <Pose ID>  (541)
126

>  <Score>  (541)
-5.293594837188721

>  <smiles>  (541)
CCc1cc(-c2cnc(Nc3cnc(=O)[nH]c3)cc2C)no1

$$$$

     RDKit          3D

 24 26  0  0  0  0  0  0  0  0999 V2000
   27.5440    7.9650   -9.6810 C   0  0  0  0  0  0  0  0  0  0  0  0
   26.8470    7.0130   -8.9470 N   0  0  0  0  0  0  0  0  0  0  0  0
   26.0660    7.4030   -7.8680 C   0  0  0  0  0  0  0  0  0  0  0  0
   25.9790    8.7460   -7.5210 C   0  0  0  0  0  0  0  0  0  0  0  0
   25.2160    9.0820   -6.3760 C   0  0  0  0  0  0  0  0  0  0  0  0
   24.5380    8.0990   -5.6640 C   0  0  0  0  0  0  0  0  0  0  0  0
   24.6250    6.7710   -6.0640 C   0  0  0  0  0  0  0  0  0  0  0  0
   25.3830    6.4250   -7.1730 C   0  0  0  0  0  0  0  0  0  0  0  0
   27.4580    9.3080   -9.3330 C   0  0  0  0  0  0  0  0  0  0  0  0
   26.6760    9.7000   -8.2530 C   0  0  0  0  0  0  0  0  0  0  0  0
   28.3170    7.5810  -10.7480 N   0  0  0  0  0  0  0  0  0  0  0  0
   29.0570    8.3940  -11.4960 C   0  0  0  0  0  0  0  0  0  0  0  0
   30.4510    8.3100  -11.6400 N   0  0  0  0  0  0  0  0  0  0  0  0
   30.7640    9.3240  -12.4570 O   0  0  0  0  0  0  0  0  0  0  0  0
   29.7420    9.9950  -12.8290 C   0  0  0  0  0  0  0  0  0  0  0  0
   28.6520    9.4310  -12.2360 N   0  0  0  0  0  0  0  0  0  0  0  0
   25.1593   10.1302   -6.0471 H   0  0  0  0  0  0  0  0  0  0  0  0
   23.9341    8.3718   -4.7860 H   0  0  0  0  0  0  0  0  0  0  0  0
   24.0913    5.9921   -5.4997 H   0  0  0  0  0  0  0  0  0  0  0  0
   25.4397    5.3755   -7.4974 H   0  0  0  0  0  0  0  0  0  0  0  0
   28.0099   10.0619   -9.9135 H   0  0  0  0  0  0  0  0  0  0  0  0
   26.6088   10.7630   -7.9781 H   0  0  0  0  0  0  0  0  0  0  0  0
   28.3246    6.5797  -10.9895 H   0  0  0  0  0  0  0  0  0  0  0  0
   29.7420   10.8651  -13.5020 H   0  0  0  0  0  0  0  0  0  0  0  0
  1 11  1  0
  1  9  1  0
  1  2  2  0
  2  3  1  0
  3  4  2  0
  3  8  1  0
  4 10  1  0
  4  5  1  0
  5  6  2  0
  6  7  1  0
  7  8  2  0
  9 10  2  0
 11 12  1  0
 12 16  1  0
 12 13  2  0
 13 14  1  0
 14 15  1  0
 15 16  2  0
  5 17  1  0
  6 18  1  0
  7 19  1  0
  8 20  1  0
  9 21  1  0
 10 22  1  0
 11 23  1  0
 15 24  1  0
M  END
>  <Pose ID>  (542)
9

>  <Score>  (542)
-5.292057037353516

>  <smiles>  (542)
c1ccc2nc(Nc3ncon3)ccc2c1

$$$$

     RDKit          3D

 31 33  0  0  0  0  0  0  0  0999 V2000
   27.6500   10.3440  -10.0840 C   0  0  0  0  0  0  0  0  0  0  0  0
   27.3920    9.0740   -9.5850 N   0  0  0  0  0  0  0  0  0  0  0  0
   28.3580   10.4980  -11.2680 N   0  0  0  0  0  0  0  0  0  0  0  0
   27.8310    7.9520  -10.2940 C   0  0  0  0  0  0  0  0  0  0  0  0
   28.5520    8.1050  -11.4570 C   0  0  0  0  0  0  0  0  0  0  0  0
   28.8080    9.3750  -11.9550 C   0  0  0  0  0  0  0  0  0  0  0  0
   27.5710    6.8110   -9.8750 O   0  0  0  0  0  0  0  0  0  0  0  0
   26.7690    8.7250   -8.3850 C   0  0  0  0  0  0  0  0  0  0  0  0
   25.5240    8.1090   -8.4270 C   0  0  0  0  0  0  0  0  0  0  0  0
   27.4360    8.8610   -7.1740 C   0  0  0  0  0  0  0  0  0  0  0  0
   24.9530    7.6210   -7.2010 C   0  0  0  0  0  0  0  0  0  0  0  0
   25.7120    7.8150   -6.0530 C   0  0  0  0  0  0  0  0  0  0  0  0
   26.8580    8.3800   -6.0040 N   0  0  0  0  0  0  0  0  0  0  0  0
   25.2360    7.3750   -4.8230 N   0  0  0  0  0  0  0  0  0  0  0  0
   24.0030    6.7400   -4.7400 C   0  0  0  0  0  0  0  0  0  0  0  0
   23.2450    6.5450   -5.8880 N   0  0  0  0  0  0  0  0  0  0  0  0
   23.7060    6.9830   -7.1190 C   0  0  0  0  0  0  0  0  0  0  0  0
   27.1050   11.2790   -9.2320 O   0  0  0  0  0  0  0  0  0  0  0  0
   27.0740   12.6220   -9.8780 C   0  0  1  0  0  0  0  0  0  0  0  0
   26.2120   13.4250   -8.8370 C   0  0  1  0  0  0  0  0  0  0  0  0
   28.9256    7.2195  -11.9922 H   0  0  0  0  0  0  0  0  0  0  0  0
   29.3677    9.4938  -12.8945 H   0  0  0  0  0  0  0  0  0  0  0  0
   24.9858    7.9969   -9.3798 H   0  0  0  0  0  0  0  0  0  0  0  0
   28.4212    9.3491   -7.1405 H   0  0  0  0  0  0  0  0  0  0  0  0
   23.6273    6.3920   -3.7665 H   0  0  0  0  0  0  0  0  0  0  0  0
   23.0996    6.8319   -8.0242 H   0  0  0  0  0  0  0  0  0  0  0  0
   28.0838   13.0458   -9.9811 H   0  0  0  0  0  0  0  0  0  0  0  0
   26.6745   12.6270  -10.9029 H   0  0  0  0  0  0  0  0  0  0  0  0
   26.5134   13.1442   -7.8171 H   0  0  0  0  0  0  0  0  0  0  0  0
   26.3719   14.5035   -8.9828 H   0  0  0  0  0  0  0  0  0  0  0  0
   25.1475   13.1892   -8.9828 H   0  0  0  0  0  0  0  0  0  0  0  0
  1  3  2  0
  1  2  1  0
  1 18  1  0
  2  4  1  0
  2  8  1  0
  3  6  1  0
  4  5  1  0
  4  7  2  0
  5  6  2  0
  8  9  2  0
  8 10  1  0
  9 11  1  0
 10 13  2  0
 11 17  2  0
 11 12  1  0
 12 13  1  0
 12 14  2  0
 14 15  1  0
 15 16  2  0
 16 17  1  0
 18 19  1  0
 19 20  1  0
  5 21  1  0
  6 22  1  0
  9 23  1  0
 10 24  1  0
 15 25  1  0
 17 26  1  0
 19 27  1  6
 19 28  1  0
 20 29  1  1
 20 30  1  0
 20 31  1  0
M  END
>  <Pose ID>  (543)
6

>  <Score>  (543)
-5.2857441902160645

>  <smiles>  (543)
CCOc1nccc(=O)n1-c1cnc2ncncc2c1

$$$$

     RDKit          3D

 26 28  0  0  0  0  0  0  0  0999 V2000
   27.5210    7.9040   -9.6720 C   0  0  0  0  0  0  0  0  0  0  0  0
   26.8660    6.9090   -8.9570 N   0  0  0  0  0  0  0  0  0  0  0  0
   26.0970    7.2400   -7.8460 C   0  0  0  0  0  0  0  0  0  0  0  0
   25.2380    6.2460   -7.4060 C   0  0  0  0  0  0  0  0  0  0  0  0
   24.3620    6.4770   -6.3530 N   0  0  0  0  0  0  0  0  0  0  0  0
   24.2950    7.7390   -5.7720 C   0  0  0  0  0  0  0  0  0  0  0  0
   25.1030    8.7660   -6.2430 C   0  0  0  0  0  0  0  0  0  0  0  0
   25.9850    8.5670   -7.4520 C   0  0  0  0  0  0  0  0  0  0  0  0
   27.4070    9.2310   -9.2770 C   0  0  0  0  0  0  0  0  0  0  0  0
   26.6360    9.5640   -8.1650 C   0  0  0  0  0  0  0  0  0  0  0  0
   28.2790    7.5760  -10.7670 N   0  0  0  0  0  0  0  0  0  0  0  0
   28.9800    8.4330  -11.5020 C   0  0  0  0  0  0  0  0  0  0  0  0
   30.3720    8.3910  -11.6810 N   0  0  0  0  0  0  0  0  0  0  0  0
   30.6410    9.4420  -12.4680 O   0  0  0  0  0  0  0  0  0  0  0  0
   29.5930   10.0990  -12.7920 C   0  0  0  0  0  0  0  0  0  0  0  0
   28.5310    9.4860  -12.1950 N   0  0  0  0  0  0  0  0  0  0  0  0
   25.0990   10.0990   -5.5350 C   0  0  1  0  0  0  0  0  0  0  0  0
   25.2498    5.2616   -7.8967 H   0  0  0  0  0  0  0  0  0  0  0  0
   23.6013    7.9240   -4.9386 H   0  0  0  0  0  0  0  0  0  0  0  0
   27.9256   10.0193   -9.8423 H   0  0  0  0  0  0  0  0  0  0  0  0
   26.5436   10.6148   -7.8530 H   0  0  0  0  0  0  0  0  0  0  0  0
   28.3072    6.5839  -11.0423 H   0  0  0  0  0  0  0  0  0  0  0  0
   29.5550   10.9922  -13.4329 H   0  0  0  0  0  0  0  0  0  0  0  0
   25.0995    9.9364   -4.4471 H   0  0  0  0  0  0  0  0  0  0  0  0
   25.9954   10.6688   -5.8210 H   0  0  0  0  0  0  0  0  0  0  0  0
   24.1992   10.6634   -5.8210 H   0  0  0  0  0  0  0  0  0  0  0  0
  1 11  1  0
  1  9  1  0
  1  2  2  0
  2  3  1  0
  3  8  2  0
  3  4  1  0
  4  5  2  0
  5  6  1  0
  6  7  2  0
  7  8  1  0
  7 17  1  0
  8 10  1  0
  9 10  2  0
 11 12  1  0
 12 16  1  0
 12 13  2  0
 13 14  1  0
 14 15  1  0
 15 16  2  0
  4 18  1  0
  6 19  1  0
  9 20  1  0
 10 21  1  0
 11 22  1  0
 15 23  1  0
 17 24  1  1
 17 25  1  0
 17 26  1  0
M  END
>  <Pose ID>  (544)
3

>  <Score>  (544)
-5.279068470001221

>  <smiles>  (544)
Cc1cncc2nc(Nc3ncon3)ccc12

$$$$

     RDKit          3D

 29 31  0  0  0  0  0  0  0  0999 V2000
   26.8400    8.9410  -10.3660 C   0  0  0  0  0  0  0  0  0  0  0  0
   27.5020    7.7210  -10.2650 C   0  0  0  0  0  0  0  0  0  0  0  0
   28.7280    7.5420  -10.8970 N   0  0  0  0  0  0  0  0  0  0  0  0
   25.6430    9.4420   -9.8700 N   0  0  0  0  0  0  0  0  0  0  0  0
   29.2900    8.5790  -11.6330 C   0  0  0  0  0  0  0  0  0  0  0  0
   28.6270    9.7970  -11.7360 C   0  0  0  0  0  0  0  0  0  0  0  0
   27.4020    9.9760  -11.1030 C   0  0  0  0  0  0  0  0  0  0  0  0
   30.4420    8.6460  -12.3230 N   0  0  0  0  0  0  0  0  0  0  0  0
   30.5500    9.8970  -12.8870 C   0  0  0  0  0  0  0  0  0  0  0  0
   29.3470   10.4840  -12.4380 C   0  0  0  0  0  0  0  0  0  0  0  0
   25.3570    9.7130   -8.4410 C   0  0  0  0  0  0  0  0  0  0  0  0
   24.1820   10.1980   -7.8920 N   0  0  0  0  0  0  0  0  0  0  0  0
   24.0930   10.4420   -6.5260 C   0  0  0  0  0  0  0  0  0  0  0  0
   25.1810   10.1630   -5.7050 C   0  0  0  0  0  0  0  0  0  0  0  0
   26.3560    9.6620   -6.2520 C   0  0  0  0  0  0  0  0  0  0  0  0
   26.4430    9.4360   -7.6200 N   0  0  0  0  0  0  0  0  0  0  0  0
   27.3280    9.4170   -5.5170 O   0  0  0  0  0  0  0  0  0  0  0  0
   22.8240   11.0060   -5.9370 C   0  0  1  0  0  0  0  0  0  0  0  0
   27.0560    6.8990   -9.6858 H   0  0  0  0  0  0  0  0  0  0  0  0
   29.2200    6.6404  -10.8197 H   0  0  0  0  0  0  0  0  0  0  0  0
   24.8947    9.6410  -10.5492 H   0  0  0  0  0  0  0  0  0  0  0  0
   26.8768   10.9390  -11.1859 H   0  0  0  0  0  0  0  0  0  0  0  0
   31.3496   10.3207  -13.5124 H   0  0  0  0  0  0  0  0  0  0  0  0
   29.0728   11.5141  -12.7096 H   0  0  0  0  0  0  0  0  0  0  0  0
   25.1110   10.3392   -4.6215 H   0  0  0  0  0  0  0  0  0  0  0  0
   27.3131    9.0629   -8.0258 H   0  0  0  0  0  0  0  0  0  0  0  0
   22.8856   10.9786   -4.8391 H   0  0  0  0  0  0  0  0  0  0  0  0
   22.6953   12.0461   -6.2712 H   0  0  0  0  0  0  0  0  0  0  0  0
   21.9657   10.4046   -6.2712 H   0  0  0  0  0  0  0  0  0  0  0  0
  4  1  1  0
  4 11  1  0
 11 12  2  0
 11 16  1  0
 12 13  1  0
 13 18  1  0
 13 14  2  0
 14 15  1  0
 15 16  1  0
 15 17  2  0
  1  7  1  0
  1  2  2  0
  2  3  1  0
  3  5  1  0
  5  8  2  0
  5  6  1  0
  6 10  1  0
  6  7  2  0
  8  9  1  0
  9 10  2  0
  2 19  1  0
  3 20  1  0
  4 21  1  0
  7 22  1  0
  9 23  1  0
 10 24  1  0
 14 25  1  0
 16 26  1  0
 18 27  1  1
 18 28  1  0
 18 29  1  0
M  END
>  <Pose ID>  (545)
14

>  <Score>  (545)
-5.268048286437988

>  <smiles>  (545)
Cc1cc(=O)[nH]c(Nc2c[nH]c3nccc-3c2)n1

$$$$

     RDKit          3D

 34 37  0  0  0  0  0  0  0  0999 V2000
   27.8420    7.8110  -10.3060 C   0  0  0  0  0  0  0  0  0  0  0  0
   28.7720    7.1050  -11.0580 C   0  0  0  0  0  0  0  0  0  0  0  0
   29.6300    7.7830  -11.9150 N   0  0  0  0  0  0  0  0  0  0  0  0
   29.5580    9.1670  -12.0210 C   0  0  0  0  0  0  0  0  0  0  0  0
   27.0210    6.9570   -9.4530 O   0  0  0  0  0  0  0  0  0  0  0  0
   28.6250    9.8730  -11.2680 C   0  0  0  0  0  0  0  0  0  0  0  0
   27.7690    9.1950  -10.4110 C   0  0  0  0  0  0  0  0  0  0  0  0
   30.2700   10.0340  -12.7690 N   0  0  0  0  0  0  0  0  0  0  0  0
   29.8130   11.3090  -12.5220 C   0  0  0  0  0  0  0  0  0  0  0  0
   28.7950   11.0380  -11.5810 C   0  0  0  0  0  0  0  0  0  0  0  0
   26.2280    7.4270   -8.3980 C   0  0  0  0  0  0  0  0  0  0  0  0
   25.4450    8.5420   -8.6490 N   0  0  0  0  0  0  0  0  0  0  0  0
   24.8080    8.8360   -7.5380 N   0  0  0  0  0  0  0  0  0  0  0  0
   25.0700    7.9850   -6.4720 C   0  0  0  0  0  0  0  0  0  0  0  0
   25.9680    7.0940   -7.0810 C   0  0  0  0  0  0  0  0  0  0  0  0
   23.9190    9.8930   -7.3810 C   0  0  0  0  0  0  0  0  0  0  0  0
   23.2920   10.0990   -6.1590 C   0  0  0  0  0  0  0  0  0  0  0  0
   23.5550    9.2470   -5.0920 C   0  0  0  0  0  0  0  0  0  0  0  0
   24.4430    8.1900   -5.2480 N   0  0  0  0  0  0  0  0  0  0  0  0
   30.2700   12.6260  -13.0970 C   0  0  1  0  0  0  0  0  0  0  0  0
   29.1470   13.0320  -14.0290 C   0  0  1  0  0  0  0  0  0  0  0  0
   28.8293    6.0096  -10.9751 H   0  0  0  0  0  0  0  0  0  0  0  0
   30.3201    7.2595  -12.4723 H   0  0  0  0  0  0  0  0  0  0  0  0
   27.0324    9.7534   -9.8146 H   0  0  0  0  0  0  0  0  0  0  0  0
   28.1826   11.8436  -11.1497 H   0  0  0  0  0  0  0  0  0  0  0  0
   26.4143    6.2289   -6.5687 H   0  0  0  0  0  0  0  0  0  0  0  0
   23.7119   10.5669   -8.2254 H   0  0  0  0  0  0  0  0  0  0  0  0
   22.5881   10.9352   -6.0353 H   0  0  0  0  0  0  0  0  0  0  0  0
   23.0595    9.4101   -4.1235 H   0  0  0  0  0  0  0  0  0  0  0  0
   30.4064   13.3731  -12.3013 H   0  0  0  0  0  0  0  0  0  0  0  0
   31.2388   12.5482  -13.6122 H   0  0  0  0  0  0  0  0  0  0  0  0
   28.2751   13.3472  -13.4370 H   0  0  0  0  0  0  0  0  0  0  0  0
   29.4806   13.8664  -14.6634 H   0  0  0  0  0  0  0  0  0  0  0  0
   28.8698   12.1772  -14.6634 H   0  0  0  0  0  0  0  0  0  0  0  0
  1  2  2  0
  1  7  1  0
  1  5  1  0
  2  3  1  0
  3  4  1  0
  4  8  2  0
  4  6  1  0
  6 10  1  0
  6  7  2  0
  8  9  1  0
  9 20  1  0
  9 10  2  0
 20 21  1  0
  5 11  1  0
 11 12  2  0
 11 15  1  0
 12 13  1  0
 13 16  1  0
 13 14  1  0
 14 15  2  0
 14 19  1  0
 16 17  2  0
 17 18  1  0
 18 19  2  0
  2 22  1  0
  3 23  1  0
  7 24  1  0
 10 25  1  0
 15 26  1  0
 16 27  1  0
 17 28  1  0
 18 29  1  0
 20 30  1  1
 20 31  1  0
 21 32  1  1
 21 33  1  0
 21 34  1  0
M  END
>  <Pose ID>  (546)
359

>  <Score>  (546)
-5.263670444488525

>  <smiles>  (546)
CCc1cc2cc(Oc3cc4ncccn4n3)c[nH]c-2n1

$$$$

     RDKit          3D

 32 34  0  0  0  0  0  0  0  0999 V2000
   27.8640    7.8620  -10.2370 C   0  0  0  0  0  0  0  0  0  0  0  0
   28.8300    7.1350  -10.9210 C   0  0  0  0  0  0  0  0  0  0  0  0
   29.6770    7.7760  -11.8160 N   0  0  0  0  0  0  0  0  0  0  0  0
   29.5560    9.1460  -12.0290 C   0  0  0  0  0  0  0  0  0  0  0  0
   27.0620    7.0450   -9.3280 O   0  0  0  0  0  0  0  0  0  0  0  0
   28.5880    9.8720  -11.3430 C   0  0  0  0  0  0  0  0  0  0  0  0
   27.7430    9.2290  -10.4470 C   0  0  0  0  0  0  0  0  0  0  0  0
   30.2470    9.9790  -12.8310 N   0  0  0  0  0  0  0  0  0  0  0  0
   29.7410   11.2520  -12.6880 C   0  0  0  0  0  0  0  0  0  0  0  0
   28.7200   11.0150  -11.7420 C   0  0  0  0  0  0  0  0  0  0  0  0
   26.2390    7.5650   -8.3250 C   0  0  0  0  0  0  0  0  0  0  0  0
   25.4190    8.6280   -8.6680 N   0  0  0  0  0  0  0  0  0  0  0  0
   24.7170    9.0070   -7.5380 N   0  0  0  0  0  0  0  0  0  0  0  0
   25.0740    8.2000   -6.5280 C   0  0  0  0  0  0  0  0  0  0  0  0
   25.9720    7.3230   -6.9870 C   0  0  0  0  0  0  0  0  0  0  0  0
   23.7770   10.0980   -7.5840 C   0  0  1  0  0  0  0  0  0  0  0  0
   30.1600   12.5390  -13.3550 C   0  0  1  0  0  0  0  0  0  0  0  0
   23.7890   11.0990   -6.4040 C   0  0  1  0  0  0  0  0  0  0  0  0
   28.9242    6.0519  -10.7539 H   0  0  0  0  0  0  0  0  0  0  0  0
   30.3945    7.2375  -12.3220 H   0  0  0  0  0  0  0  0  0  0  0  0
   26.9779    9.8032   -9.9039 H   0  0  0  0  0  0  0  0  0  0  0  0
   28.0720   11.8274  -11.3811 H   0  0  0  0  0  0  0  0  0  0  0  0
   24.6927    8.2512   -5.4975 H   0  0  0  0  0  0  0  0  0  0  0  0
   26.4331    6.5236   -6.3884 H   0  0  0  0  0  0  0  0  0  0  0  0
   23.9785   10.6685   -8.5026 H   0  0  0  0  0  0  0  0  0  0  0  0
   22.7879    9.6191   -7.5363 H   0  0  0  0  0  0  0  0  0  0  0  0
   30.4037   13.2877  -12.5868 H   0  0  0  0  0  0  0  0  0  0  0  0
   31.0449   12.3557  -13.9822 H   0  0  0  0  0  0  0  0  0  0  0  0
   29.3368   12.9118  -13.9822 H   0  0  0  0  0  0  0  0  0  0  0  0
   23.7824   10.5454   -5.4535 H   0  0  0  0  0  0  0  0  0  0  0  0
   24.6947   11.7208   -6.4599 H   0  0  0  0  0  0  0  0  0  0  0  0
   22.8985   11.7423   -6.4599 H   0  0  0  0  0  0  0  0  0  0  0  0
  1  2  2  0
  1  7  1  0
  1  5  1  0
  2  3  1  0
  3  4  1  0
  4  8  2  0
  4  6  1  0
  6 10  1  0
  6  7  2  0
  8  9  1  0
  9 17  1  0
  9 10  2  0
  5 11  1  0
 11 12  2  0
 11 15  1  0
 12 13  1  0
 13 16  1  0
 13 14  1  0
 14 15  2  0
 16 18  1  0
  2 19  1  0
  3 20  1  0
  7 21  1  0
 10 22  1  0
 14 23  1  0
 15 24  1  0
 16 25  1  6
 16 26  1  0
 17 27  1  1
 17 28  1  0
 17 29  1  0
 18 30  1  1
 18 31  1  0
 18 32  1  0
M  END
>  <Pose ID>  (547)
479

>  <Score>  (547)
-5.261908054351807

>  <smiles>  (547)
CCn1ccc(Oc2c[nH]c3nc(C)cc-3c2)n1

$$$$

     RDKit          3D

 33 36  0  0  0  0  0  0  0  0999 V2000
   27.0480    8.3690   -9.9890 C   0  0  0  0  0  0  0  0  0  0  0  0
   27.7260    7.3240  -10.6040 C   0  0  0  0  0  0  0  0  0  0  0  0
   28.7540    7.5940  -11.4990 N   0  0  0  0  0  0  0  0  0  0  0  0
   29.1050    8.9090  -11.7780 C   0  0  0  0  0  0  0  0  0  0  0  0
   26.0030    7.9180   -9.0730 O   0  0  0  0  0  0  0  0  0  0  0  0
   28.4240    9.9560  -11.1630 C   0  0  0  0  0  0  0  0  0  0  0  0
   27.3970    9.6830  -10.2680 C   0  0  0  0  0  0  0  0  0  0  0  0
   30.0490    9.4160  -12.5950 N   0  0  0  0  0  0  0  0  0  0  0  0
   29.9970   10.7890  -12.5300 C   0  0  0  0  0  0  0  0  0  0  0  0
   28.9410   10.9650  -11.6110 C   0  0  0  0  0  0  0  0  0  0  0  0
   25.3840    8.7400   -8.1230 C   0  0  0  0  0  0  0  0  0  0  0  0
   24.9750    9.9950   -8.5460 N   0  0  0  0  0  0  0  0  0  0  0  0
   24.4240   10.6480   -7.4610 N   0  0  0  0  0  0  0  0  0  0  0  0
   24.4690    9.8290   -6.4020 C   0  0  0  0  0  0  0  0  0  0  0  0
   25.0280    8.6780   -6.7860 C   0  0  0  0  0  0  0  0  0  0  0  0
   23.9570   11.8100   -7.4820 C   0  0  0  0  0  0  0  0  0  0  0  0
   23.3500   12.4720   -6.4210 N   0  0  0  0  0  0  0  0  0  0  0  0
   24.0860   12.4410   -8.7130 C   0  0  0  0  0  0  0  0  0  0  0  0
   23.6070   13.7340   -8.8850 C   0  0  0  0  0  0  0  0  0  0  0  0
   23.0020   14.3970   -7.8240 C   0  0  0  0  0  0  0  0  0  0  0  0
   22.8880   13.8310   -6.6570 C   0  0  0  0  0  0  0  0  0  0  0  0
   22.3720   14.4690   -5.7220 O   0  0  0  0  0  0  0  0  0  0  0  0
   27.4490    6.2828  -10.3824 H   0  0  0  0  0  0  0  0  0  0  0  0
   29.2559    6.8191  -11.9557 H   0  0  0  0  0  0  0  0  0  0  0  0
   26.8597   10.5095   -9.7798 H   0  0  0  0  0  0  0  0  0  0  0  0
   30.6088   11.5409  -13.0500 H   0  0  0  0  0  0  0  0  0  0  0  0
   28.5997   11.9672  -11.3123 H   0  0  0  0  0  0  0  0  0  0  0  0
   24.1077   10.0638   -5.3899 H   0  0  0  0  0  0  0  0  0  0  0  0
   25.1833    7.8060   -6.1337 H   0  0  0  0  0  0  0  0  0  0  0  0
   23.2320   12.0181   -5.5039 H   0  0  0  0  0  0  0  0  0  0  0  0
   24.5675   11.9169   -9.5517 H   0  0  0  0  0  0  0  0  0  0  0  0
   23.7066   14.2325   -9.8605 H   0  0  0  0  0  0  0  0  0  0  0  0
   22.6136   15.4154   -7.9724 H   0  0  0  0  0  0  0  0  0  0  0  0
 11  5  1  0
 11 12  2  0
 11 15  1  0
 12 13  1  0
 13 16  1  0
 13 14  1  0
 14 15  2  0
 16 18  2  0
 16 17  1  0
 17 21  1  0
 18 19  1  0
 19 20  2  0
 20 21  1  0
 21 22  2  0
  5  1  1  0
  1  2  2  0
  1  7  1  0
  2  3  1  0
  3  4  1  0
  4  8  2  0
  4  6  1  0
  6 10  1  0
  6  7  2  0
  8  9  1  0
  9 10  2  0
  2 23  1  0
  3 24  1  0
  7 25  1  0
  9 26  1  0
 10 27  1  0
 14 28  1  0
 15 29  1  0
 17 30  1  0
 18 31  1  0
 19 32  1  0
 20 33  1  0
M  END
>  <Pose ID>  (548)
236

>  <Score>  (548)
-5.261406421661377

>  <smiles>  (548)
O=c1cccc(-n2ccc(Oc3c[nH]c4nccc-4c3)n2)[nH]1

$$$$

     RDKit          3D

 29 31  0  0  0  0  0  0  0  0999 V2000
   28.6020    9.5760  -12.0370 C   0  0  0  0  0  0  0  0  0  0  0  0
   29.3090    8.4030  -11.8470 C   0  0  0  0  0  0  0  0  0  0  0  0
   28.8480    7.4570  -10.9380 N   0  0  0  0  0  0  0  0  0  0  0  0
   27.6930    7.6980  -10.2070 C   0  0  0  0  0  0  0  0  0  0  0  0
   27.4530    9.8340  -11.2900 C   0  0  0  0  0  0  0  0  0  0  0  0
   26.9950    8.8860  -10.3830 C   0  0  0  0  0  0  0  0  0  0  0  0
   27.0620    6.9470   -9.2850 N   0  0  0  0  0  0  0  0  0  0  0  0
   25.9510    7.6300   -8.8430 C   0  0  0  0  0  0  0  0  0  0  0  0
   26.0550    8.8110   -9.6100 C   0  0  0  0  0  0  0  0  0  0  0  0
   24.9300    7.4260   -7.9470 N   0  0  0  0  0  0  0  0  0  0  0  0
   24.7670    8.1440   -6.7540 C   0  0  0  0  0  0  0  0  0  0  0  0
   24.0450    9.3320   -6.7710 C   0  0  0  0  0  0  0  0  0  0  0  0
   23.8740   10.0570   -5.5970 C   0  0  0  0  0  0  0  0  0  0  0  0
   24.4240    9.5940   -4.4080 C   0  0  0  0  0  0  0  0  0  0  0  0
   25.1470    8.4060   -4.3910 N   0  0  0  0  0  0  0  0  0  0  0  0
   25.3170    7.6820   -5.5660 C   0  0  0  0  0  0  0  0  0  0  0  0
   23.0900   11.3460   -5.6140 C   0  0  1  0  0  0  0  0  0  0  0  0
   28.9475   10.3091  -12.7808 H   0  0  0  0  0  0  0  0  0  0  0  0
   30.2337    8.2186  -12.4134 H   0  0  0  0  0  0  0  0  0  0  0  0
   29.3647    6.5757  -10.8069 H   0  0  0  0  0  0  0  0  0  0  0  0
   26.9119   10.7831  -11.4181 H   0  0  0  0  0  0  0  0  0  0  0  0
   25.3220    9.6256   -9.5146 H   0  0  0  0  0  0  0  0  0  0  0  0
   24.2373    6.6961   -8.1665 H   0  0  0  0  0  0  0  0  0  0  0  0
   23.6094    9.6980   -7.7124 H   0  0  0  0  0  0  0  0  0  0  0  0
   24.2875   10.1675   -3.4793 H   0  0  0  0  0  0  0  0  0  0  0  0
   25.8881    6.7419   -5.5541 H   0  0  0  0  0  0  0  0  0  0  0  0
   22.8934   11.6692   -4.5811 H   0  0  0  0  0  0  0  0  0  0  0  0
   23.6699   12.1210   -6.1366 H   0  0  0  0  0  0  0  0  0  0  0  0
   22.1352   11.1875   -6.1366 H   0  0  0  0  0  0  0  0  0  0  0  0
  1  2  2  0
  1  5  1  0
  2  3  1  0
  3  4  1  0
  4  6  1  0
  4  7  2  0
  5  6  2  0
  6  9  1  0
  7  8  1  0
  8  9  2  0
  8 10  1  0
 10 11  1  0
 11 12  2  0
 11 16  1  0
 12 13  1  0
 13 17  1  0
 13 14  2  0
 14 15  1  0
 15 16  2  0
  1 18  1  0
  2 19  1  0
  3 20  1  0
  5 21  1  0
  9 22  1  0
 10 23  1  0
 12 24  1  0
 14 25  1  0
 16 26  1  0
 17 27  1  1
 17 28  1  0
 17 29  1  0
M  END
>  <Pose ID>  (549)
195

>  <Score>  (549)
-5.257762432098389

>  <smiles>  (549)
Cc1cncc(Nc2cc3ccc[nH]c-3n2)c1

$$$$

     RDKit          3D

 14 14  0  0  0  0  0  0  0  0999 V2000
   28.0850    7.6300  -10.3920 C   0  0  0  0  0  0  0  0  0  0  0  0
   27.1770    6.9020   -9.6320 N   0  0  0  0  0  0  0  0  0  0  0  0
   26.0910    7.5410   -9.0450 C   0  0  0  0  0  0  0  0  0  0  0  0
   25.9140    8.9090   -9.2180 C   0  0  0  0  0  0  0  0  0  0  0  0
   26.8220    9.6370   -9.9760 C   0  0  0  0  0  0  0  0  0  0  0  0
   27.9240    9.0000  -10.5380 C   0  0  0  0  0  0  0  0  0  0  0  0
   26.6130   11.1160  -10.1890 C   0  0  1  0  0  0  0  0  0  0  0  0
   28.9304    7.1202  -10.8772 H   0  0  0  0  0  0  0  0  0  0  0  0
   25.3722    6.9647   -8.4440 H   0  0  0  0  0  0  0  0  0  0  0  0
   25.0544    9.4151   -8.7543 H   0  0  0  0  0  0  0  0  0  0  0  0
   28.6687    9.5837  -11.0990 H   0  0  0  0  0  0  0  0  0  0  0  0
   26.5417   11.6204   -9.2141 H   0  0  0  0  0  0  0  0  0  0  0  0
   27.4618   11.5286  -10.7541 H   0  0  0  0  0  0  0  0  0  0  0  0
   25.6831   11.2773  -10.7541 H   0  0  0  0  0  0  0  0  0  0  0  0
  1  6  2  0
  1  2  1  0
  2  3  2  0
  3  4  1  0
  4  5  2  0
  5  6  1  0
  5  7  1  0
  1  8  1  0
  3  9  1  0
  4 10  1  0
  6 11  1  0
  7 12  1  1
  7 13  1  0
  7 14  1  0
M  END
>  <Pose ID>  (550)
37

>  <Score>  (550)
-5.251066207885742

>  <smiles>  (550)
Cc1ccncc1

$$$$

     RDKit          3D

 41 44  0  0  0  0  0  0  0  0999 V2000
   27.8920    7.8710  -10.2710 C   0  0  0  0  0  0  0  0  0  0  0  0
   28.8680    7.1410  -10.9370 C   0  0  0  0  0  0  0  0  0  0  0  0
   29.7280    7.7760  -11.8220 N   0  0  0  0  0  0  0  0  0  0  0  0
   29.6120    9.1450  -12.0430 C   0  0  0  0  0  0  0  0  0  0  0  0
   27.0770    7.0590   -9.3710 O   0  0  0  0  0  0  0  0  0  0  0  0
   28.6340    9.8750  -11.3770 C   0  0  0  0  0  0  0  0  0  0  0  0
   27.7760    9.2380  -10.4900 C   0  0  0  0  0  0  0  0  0  0  0  0
   30.3160    9.9740  -12.8390 N   0  0  0  0  0  0  0  0  0  0  0  0
   29.8090   11.2470  -12.7090 C   0  0  0  0  0  0  0  0  0  0  0  0
   28.7730   11.0170  -11.7780 C   0  0  0  0  0  0  0  0  0  0  0  0
   26.2390    7.5840   -8.3820 C   0  0  0  0  0  0  0  0  0  0  0  0
   25.4250    8.6470   -8.7420 N   0  0  0  0  0  0  0  0  0  0  0  0
   24.7070    9.0310   -7.6240 N   0  0  0  0  0  0  0  0  0  0  0  0
   25.0470    8.2290   -6.6060 C   0  0  0  0  0  0  0  0  0  0  0  0
   25.9510    7.3490   -7.0480 C   0  0  0  0  0  0  0  0  0  0  0  0
   23.7690   10.1210   -7.6890 C   0  0  1  0  0  0  0  0  0  0  0  0
   30.2390   12.5310  -13.3750 C   0  0  1  0  0  0  0  0  0  0  0  0
   24.4420    8.4600   -5.4010 N   0  0  0  0  0  0  0  0  0  0  0  0
   23.3720    7.6320   -4.8250 C   0  0  1  0  0  0  0  0  0  0  0  0
   24.7750    9.6300   -4.6020 C   0  0  1  0  0  0  0  0  0  0  0  0
   23.5270    9.7510   -3.6690 C   0  0  1  0  0  0  0  0  0  0  0  0
   23.1340    8.3140   -3.4010 C   0  0  1  0  0  0  0  0  0  0  0  0
   28.9594    6.0587  -10.7629 H   0  0  0  0  0  0  0  0  0  0  0  0
   30.4519    7.2341  -12.3151 H   0  0  0  0  0  0  0  0  0  0  0  0
   27.0042    9.8161   -9.9606 H   0  0  0  0  0  0  0  0  0  0  0  0
   28.1209   11.8318  -11.4304 H   0  0  0  0  0  0  0  0  0  0  0  0
   26.4019    6.5517   -6.4388 H   0  0  0  0  0  0  0  0  0  0  0  0
   23.4995   10.4341   -6.6695 H   0  0  0  0  0  0  0  0  0  0  0  0
   24.2261   10.9667   -8.2236 H   0  0  0  0  0  0  0  0  0  0  0  0
   22.8646    9.7951   -8.2236 H   0  0  0  0  0  0  0  0  0  0  0  0
   30.4888   13.2770  -12.6062 H   0  0  0  0  0  0  0  0  0  0  0  0
   31.1225   12.3408  -14.0021 H   0  0  0  0  0  0  0  0  0  0  0  0
   29.4192   12.9112  -14.0021 H   0  0  0  0  0  0  0  0  0  0  0  0
   22.4623    7.6728   -5.4421 H   0  0  0  0  0  0  0  0  0  0  0  0
   23.6301    6.5646   -4.7618 H   0  0  0  0  0  0  0  0  0  0  0  0
   25.6947    9.4686   -4.0206 H   0  0  0  0  0  0  0  0  0  0  0  0
   24.9727   10.5330   -5.1982 H   0  0  0  0  0  0  0  0  0  0  0  0
   23.7864   10.2671   -2.7329 H   0  0  0  0  0  0  0  0  0  0  0  0
   22.7133   10.3366   -4.1218 H   0  0  0  0  0  0  0  0  0  0  0  0
   22.0806    8.2388   -3.0931 H   0  0  0  0  0  0  0  0  0  0  0  0
   23.7021    7.8444   -2.5845 H   0  0  0  0  0  0  0  0  0  0  0  0
  5  1  1  0
  5 11  1  0
  1  2  2  0
  1  7  1  0
  2  3  1  0
  3  4  1  0
  4  8  2  0
  4  6  1  0
  6 10  1  0
  6  7  2  0
  8  9  1  0
  9 17  1  0
  9 10  2  0
 11 12  2  0
 11 15  1  0
 12 13  1  0
 13 16  1  0
 13 14  1  0
 14 15  2  0
 14 18  1  0
 18 19  1  0
 18 20  1  0
 19 22  1  0
 20 21  1  0
 21 22  1  0
  2 23  1  0
  3 24  1  0
  7 25  1  0
 10 26  1  0
 15 27  1  0
 16 28  1  1
 16 29  1  0
 16 30  1  0
 17 31  1  1
 17 32  1  0
 17 33  1  0
 19 34  1  6
 19 35  1  0
 20 36  1  1
 20 37  1  0
 21 38  1  1
 21 39  1  0
 22 40  1  1
 22 41  1  0
M  END
>  <Pose ID>  (551)
485

>  <Score>  (551)
-5.250364303588867

>  <smiles>  (551)
Cc1cc2cc(Oc3cc(N4CCCC4)n(C)n3)c[nH]c-2n1

$$$$

     RDKit          3D

 37 39  0  0  0  0  0  0  0  0999 V2000
   27.8450    7.8970   -9.9010 C   0  0  0  0  0  0  0  0  0  0  0  0
   26.9320    6.8550   -9.8970 N   0  0  0  0  0  0  0  0  0  0  0  0
   26.1810    6.5870   -8.7570 C   0  0  0  0  0  0  0  0  0  0  0  0
   28.0130    8.6810   -8.7640 N   0  0  0  0  0  0  0  0  0  0  0  0
   26.3510    7.3690   -7.6190 C   0  0  0  0  0  0  0  0  0  0  0  0
   27.1810    8.3970   -7.6140 C   0  0  0  0  0  0  0  0  0  0  0  0
   28.5170    8.1360  -10.9220 O   0  0  0  0  0  0  0  0  0  0  0  0
   25.6420    7.0700   -6.4810 N   0  0  0  0  0  0  0  0  0  0  0  0
   24.3830    7.6130   -6.1410 C   0  0  0  0  0  0  0  0  0  0  0  0
   23.2530    6.8770   -5.8050 N   0  0  0  0  0  0  0  0  0  0  0  0
   22.0690    7.5310   -5.4800 C   0  0  0  0  0  0  0  0  0  0  0  0
   22.0190    8.9200   -5.4910 C   0  0  0  0  0  0  0  0  0  0  0  0
   23.1500    9.6540   -5.8260 C   0  0  0  0  0  0  0  0  0  0  0  0
   24.3390    8.9980   -6.1230 C   0  0  0  0  0  0  0  0  0  0  0  0
   20.7240    9.3350   -5.1310 C   0  0  0  0  0  0  0  0  0  0  0  0
   19.5970    8.5950   -5.2700 O   0  0  0  0  0  0  0  0  0  0  0  0
   20.5270   10.3980   -4.3010 N   0  0  0  0  0  0  0  0  0  0  0  0
   18.6590    9.2650   -4.4600 C   0  0  0  0  0  0  0  0  0  0  0  0
   19.2330   10.3800   -3.8730 C   0  0  0  0  0  0  0  0  0  0  0  0
   18.5650   11.3690   -2.9500 C   0  0  1  0  0  0  0  0  0  0  0  0
   19.4580   12.3960   -2.3420 C   0  0  1  0  0  0  0  0  0  0  0  0
   20.1820   13.2150   -3.4500 C   0  0  1  0  0  0  0  0  0  0  0  0
   25.4556    5.7600   -8.7554 H   0  0  0  0  0  0  0  0  0  0  0  0
   28.7083    9.4405   -8.7412 H   0  0  0  0  0  0  0  0  0  0  0  0
   27.2404    9.0440   -6.7264 H   0  0  0  0  0  0  0  0  0  0  0  0
   26.0614    6.3968   -5.8239 H   0  0  0  0  0  0  0  0  0  0  0  0
   21.1736    6.9497   -5.2147 H   0  0  0  0  0  0  0  0  0  0  0  0
   23.1047   10.7527   -5.8562 H   0  0  0  0  0  0  0  0  0  0  0  0
   25.2464    9.5792   -6.3441 H   0  0  0  0  0  0  0  0  0  0  0  0
   17.6162    8.9468   -4.3142 H   0  0  0  0  0  0  0  0  0  0  0  0
   17.7882   11.8950   -3.5244 H   0  0  0  0  0  0  0  0  0  0  0  0
   18.1761   10.7763   -2.1089 H   0  0  0  0  0  0  0  0  0  0  0  0
   18.8564   13.0778   -1.7229 H   0  0  0  0  0  0  0  0  0  0  0  0
   20.2136   11.8889   -1.7239 H   0  0  0  0  0  0  0  0  0  0  0  0
   20.8415   13.9611   -2.9827 H   0  0  0  0  0  0  0  0  0  0  0  0
   20.7810   12.5365   -4.0752 H   0  0  0  0  0  0  0  0  0  0  0  0
   19.4352   13.7262   -4.0752 H   0  0  0  0  0  0  0  0  0  0  0  0
  8  5  1  0
  8  9  1  0
  9 14  1  0
  9 10  2  0
 10 11  1  0
 11 12  2  0
 12 13  1  0
 12 15  1  0
 13 14  2  0
  1  7  2  0
  1  2  1  0
  1  4  1  0
  2  3  2  0
  3  5  1  0
  4  6  1  0
  5  6  2  0
 15 16  1  0
 15 17  2  0
 16 18  1  0
 17 19  1  0
 18 19  2  0
 19 20  1  0
 20 21  1  0
 21 22  1  0
  3 23  1  0
  4 24  1  0
  6 25  1  0
  8 26  1  0
 11 27  1  0
 13 28  1  0
 14 29  1  0
 18 30  1  0
 20 31  1  6
 20 32  1  0
 21 33  1  1
 21 34  1  0
 22 35  1  1
 22 36  1  0
 22 37  1  0
M  END
>  <Pose ID>  (552)
110

>  <Score>  (552)
-5.249480724334717

>  <smiles>  (552)
CCCc1coc(-c2ccc(Nc3cnc(=O)[nH]c3)nc2)n1

$$$$

     RDKit          3D

 34 36  0  0  0  0  0  0  0  0999 V2000
   27.8150    7.8710   -9.7630 C   0  0  0  0  0  0  0  0  0  0  0  0
   26.9530    6.7840   -9.7260 N   0  0  0  0  0  0  0  0  0  0  0  0
   26.1780    6.5440   -8.5990 C   0  0  0  0  0  0  0  0  0  0  0  0
   27.9010    8.7240   -8.6650 N   0  0  0  0  0  0  0  0  0  0  0  0
   26.2670    7.3970   -7.5030 C   0  0  0  0  0  0  0  0  0  0  0  0
   27.0460    8.4630   -7.5300 C   0  0  0  0  0  0  0  0  0  0  0  0
   28.5090    8.0860  -10.7710 O   0  0  0  0  0  0  0  0  0  0  0  0
   25.5350    7.1230   -6.3720 N   0  0  0  0  0  0  0  0  0  0  0  0
   24.2400    7.6200   -6.1040 C   0  0  0  0  0  0  0  0  0  0  0  0
   23.1360    6.8460   -5.7650 N   0  0  0  0  0  0  0  0  0  0  0  0
   21.9100    7.4560   -5.5180 C   0  0  0  0  0  0  0  0  0  0  0  0
   21.7920    8.8380   -5.6110 C   0  0  0  0  0  0  0  0  0  0  0  0
   22.8960    9.6100   -5.9480 C   0  0  0  0  0  0  0  0  0  0  0  0
   24.1260    8.9980   -6.1680 C   0  0  0  0  0  0  0  0  0  0  0  0
   20.4660    9.2050   -5.3160 C   0  0  0  0  0  0  0  0  0  0  0  0
   19.3450    8.7870   -5.7930 N   0  0  0  0  0  0  0  0  0  0  0  0
   18.3600    9.4890   -5.0820 O   0  0  0  0  0  0  0  0  0  0  0  0
   20.2480   10.2290   -4.2470 C   0  0  0  0  0  0  0  0  0  0  0  0
   18.7530   10.3190   -4.2530 C   0  0  0  0  0  0  0  0  0  0  0  0
   17.8980   11.2370   -3.4150 C   0  0  1  0  0  0  0  0  0  0  0  0
   17.2010   12.2270   -4.3330 C   0  0  1  0  0  0  0  0  0  0  0  0
   25.4954    5.6818   -8.5726 H   0  0  0  0  0  0  0  0  0  0  0  0
   28.5561    9.5188   -8.6624 H   0  0  0  0  0  0  0  0  0  0  0  0
   27.0439    9.1599   -6.6789 H   0  0  0  0  0  0  0  0  0  0  0  0
   25.9637    6.5080   -5.6657 H   0  0  0  0  0  0  0  0  0  0  0  0
   21.0353    6.8454   -5.2495 H   0  0  0  0  0  0  0  0  0  0  0  0
   22.7984   10.7017   -6.0407 H   0  0  0  0  0  0  0  0  0  0  0  0
   25.0109    9.6113   -6.3936 H   0  0  0  0  0  0  0  0  0  0  0  0
   20.9819   10.7664   -3.6285 H   0  0  0  0  0  0  0  0  0  0  0  0
   17.1473   10.6472   -2.8686 H   0  0  0  0  0  0  0  0  0  0  0  0
   18.5260   11.7761   -2.6904 H   0  0  0  0  0  0  0  0  0  0  0  0
   16.6721   12.9783   -3.7281 H   0  0  0  0  0  0  0  0  0  0  0  0
   17.9475   12.7268   -4.9677 H   0  0  0  0  0  0  0  0  0  0  0  0
   16.4788   11.6927   -4.9677 H   0  0  0  0  0  0  0  0  0  0  0  0
  8  5  1  0
  8  9  1  0
  9 14  1  0
  9 10  2  0
 10 11  1  0
 11 12  2  0
 12 13  1  0
 12 15  1  0
 13 14  2  0
  1  7  2  0
  1  2  1  0
  1  4  1  0
  2  3  2  0
  3  5  1  0
  4  6  1  0
  5  6  2  0
 15 16  2  0
 15 18  1  0
 16 17  1  0
 17 19  1  0
 18 19  2  0
 19 20  1  0
 20 21  1  0
  3 22  1  0
  4 23  1  0
  6 24  1  0
  8 25  1  0
 11 26  1  0
 13 27  1  0
 14 28  1  0
 18 29  1  0
 20 30  1  1
 20 31  1  0
 21 32  1  1
 21 33  1  0
 21 34  1  0
M  END
>  <Pose ID>  (553)
119

>  <Score>  (553)
-5.249282360076904

>  <smiles>  (553)
CCc1cc(-c2ccc(Nc3cnc(=O)[nH]c3)nc2)no1

$$$$

     RDKit          3D

 37 40  0  0  0  0  0  0  0  0999 V2000
   27.8650    7.8530  -10.2480 C   0  0  0  0  0  0  0  0  0  0  0  0
   28.8420    7.1320  -10.9240 C   0  0  0  0  0  0  0  0  0  0  0  0
   29.6840    7.7760  -11.8210 N   0  0  0  0  0  0  0  0  0  0  0  0
   29.5510    9.1420  -12.0430 C   0  0  0  0  0  0  0  0  0  0  0  0
   27.0700    7.0330   -9.3380 O   0  0  0  0  0  0  0  0  0  0  0  0
   28.5710    9.8640  -11.3680 C   0  0  0  0  0  0  0  0  0  0  0  0
   27.7320    9.2180  -10.4700 C   0  0  0  0  0  0  0  0  0  0  0  0
   30.2350    9.9770  -12.8500 N   0  0  0  0  0  0  0  0  0  0  0  0
   29.7150   11.2450  -12.7190 C   0  0  0  0  0  0  0  0  0  0  0  0
   28.6930   11.0060  -11.7740 C   0  0  0  0  0  0  0  0  0  0  0  0
   26.2350    7.5520   -8.3400 C   0  0  0  0  0  0  0  0  0  0  0  0
   25.4080    8.6030   -8.6930 N   0  0  0  0  0  0  0  0  0  0  0  0
   24.7270    8.9610   -7.5960 N   0  0  0  0  0  0  0  0  0  0  0  0
   25.0560    8.1610   -6.5090 C   0  0  0  0  0  0  0  0  0  0  0  0
   25.9680    7.3170   -7.0030 C   0  0  0  0  0  0  0  0  0  0  0  0
   23.7800    9.9680   -7.4550 C   0  0  0  0  0  0  0  0  0  0  0  0
   23.1610   10.1750   -6.2280 N   0  0  0  0  0  0  0  0  0  0  0  0
   23.4900    9.3740   -5.1400 C   0  0  0  0  0  0  0  0  0  0  0  0
   24.4370    8.3670   -5.2800 C   0  0  0  0  0  0  0  0  0  0  0  0
   22.8180    9.5980   -3.8080 C   0  0  2  0  0  0  0  0  0  0  0  0
   21.9700   10.8860   -3.7890 C   0  0  1  0  0  0  0  0  0  0  0  0
   23.7290    9.3190   -2.6470 C   0  0  1  0  0  0  0  0  0  0  0  0
   28.9483    6.0513  -10.7485 H   0  0  0  0  0  0  0  0  0  0  0  0
   30.4077    7.2413  -12.3223 H   0  0  0  0  0  0  0  0  0  0  0  0
   26.9599    9.7884   -9.9329 H   0  0  0  0  0  0  0  0  0  0  0  0
   30.0123   12.1821  -13.2123 H   0  0  0  0  0  0  0  0  0  0  0  0
   28.0366   11.8148  -11.4205 H   0  0  0  0  0  0  0  0  0  0  0  0
   26.4516    6.5248   -6.4126 H   0  0  0  0  0  0  0  0  0  0  0  0
   23.5200   10.6020   -8.3155 H   0  0  0  0  0  0  0  0  0  0  0  0
   24.6973    7.7329   -4.4197 H   0  0  0  0  0  0  0  0  0  0  0  0
   22.0465    8.8284   -3.6581 H   0  0  0  0  0  0  0  0  0  0  0  0
   21.7754   11.1816   -2.7475 H   0  0  0  0  0  0  0  0  0  0  0  0
   22.5150   11.6915   -4.3030 H   0  0  0  0  0  0  0  0  0  0  0  0
   21.0147   10.7037   -4.3030 H   0  0  0  0  0  0  0  0  0  0  0  0
   23.1849    9.4856   -1.7057 H   0  0  0  0  0  0  0  0  0  0  0  0
   24.0717    8.2747   -2.6925 H   0  0  0  0  0  0  0  0  0  0  0  0
   24.5977    9.9923   -2.6925 H   0  0  0  0  0  0  0  0  0  0  0  0
 11  5  1  0
 11 12  2  0
 11 15  1  0
 12 13  1  0
 13 16  1  0
 13 14  1  0
 14 15  2  0
 14 19  1  0
 16 17  2  0
 17 18  1  0
 18 19  2  0
 18 20  1  0
 20 21  1  0
 20 22  1  0
  5  1  1  0
  1  2  2  0
  1  7  1  0
  2  3  1  0
  3  4  1  0
  4  8  2  0
  4  6  1  0
  6 10  1  0
  6  7  2  0
  8  9  1  0
  9 10  2  0
  2 23  1  0
  3 24  1  0
  7 25  1  0
  9 26  1  0
 10 27  1  0
 15 28  1  0
 16 29  1  0
 19 30  1  0
 20 31  1  1
 21 32  1  1
 21 33  1  0
 21 34  1  0
 22 35  1  1
 22 36  1  0
 22 37  1  0
M  END
>  <Pose ID>  (554)
297

>  <Score>  (554)
-5.246699810028076

>  <smiles>  (554)
CC(C)c1cc2cc(Oc3c[nH]c4nccc-4c3)nn2cn1

$$$$

     RDKit          3D

 35 38  0  0  0  0  0  0  0  0999 V2000
   28.0020    7.8630  -10.3950 C   0  0  0  0  0  0  0  0  0  0  0  0
   28.9730    7.1310  -11.0670 C   0  0  0  0  0  0  0  0  0  0  0  0
   29.8490    7.7740  -11.9360 N   0  0  0  0  0  0  0  0  0  0  0  0
   29.7530    9.1460  -12.1310 C   0  0  0  0  0  0  0  0  0  0  0  0
   27.1690    7.0450   -9.5180 O   0  0  0  0  0  0  0  0  0  0  0  0
   28.7800    9.8780  -11.4570 C   0  0  0  0  0  0  0  0  0  0  0  0
   27.9070    9.2350  -10.5880 C   0  0  0  0  0  0  0  0  0  0  0  0
   30.4740    9.9810  -12.9070 N   0  0  0  0  0  0  0  0  0  0  0  0
   29.9830   11.2590  -12.7570 C   0  0  0  0  0  0  0  0  0  0  0  0
   28.9380   11.0250  -11.8360 C   0  0  0  0  0  0  0  0  0  0  0  0
   26.3300    7.5630   -8.5240 C   0  0  0  0  0  0  0  0  0  0  0  0
   25.5330    8.6420   -8.8700 N   0  0  0  0  0  0  0  0  0  0  0  0
   24.8540    8.9920   -7.8090 N   0  0  0  0  0  0  0  0  0  0  0  0
   25.1050    8.2150   -6.6850 C   0  0  0  0  0  0  0  0  0  0  0  0
   26.0300    7.3070   -7.1970 C   0  0  0  0  0  0  0  0  0  0  0  0
   23.9350   10.0330   -7.7430 C   0  0  0  0  0  0  0  0  0  0  0  0
   23.2680   10.2970   -6.5530 C   0  0  0  0  0  0  0  0  0  0  0  0
   23.5190    9.5190   -5.4280 C   0  0  0  0  0  0  0  0  0  0  0  0
   24.4380    8.4770   -5.4950 C   0  0  0  0  0  0  0  0  0  0  0  0
   22.7940    9.8060   -4.1360 C   0  0  1  0  0  0  0  0  0  0  0  0
   30.4340   12.5480  -13.3980 C   0  0  1  0  0  0  0  0  0  0  0  0
   29.0491    6.0446  -10.9123 H   0  0  0  0  0  0  0  0  0  0  0  0
   30.5691    7.2324  -12.4350 H   0  0  0  0  0  0  0  0  0  0  0  0
   27.1398    9.8133  -10.0523 H   0  0  0  0  0  0  0  0  0  0  0  0
   28.2953   11.8422  -11.4768 H   0  0  0  0  0  0  0  0  0  0  0  0
   26.4700    6.4837   -6.6151 H   0  0  0  0  0  0  0  0  0  0  0  0
   23.7358   10.6479   -8.6331 H   0  0  0  0  0  0  0  0  0  0  0  0
   22.5415   11.1213   -6.5008 H   0  0  0  0  0  0  0  0  0  0  0  0
   24.6365    7.8606   -4.6058 H   0  0  0  0  0  0  0  0  0  0  0  0
   23.4434    9.5489   -3.2862 H   0  0  0  0  0  0  0  0  0  0  0  0
   22.5356   10.8742   -4.0900 H   0  0  0  0  0  0  0  0  0  0  0  0
   21.8745    9.2041   -4.0900 H   0  0  0  0  0  0  0  0  0  0  0  0
   30.6891   13.2772  -12.6150 H   0  0  0  0  0  0  0  0  0  0  0  0
   31.3186   12.3567  -14.0232 H   0  0  0  0  0  0  0  0  0  0  0  0
   29.6231   12.9499  -14.0232 H   0  0  0  0  0  0  0  0  0  0  0  0
  1  2  2  0
  1  7  1  0
  1  5  1  0
  2  3  1  0
  3  4  1  0
  4  8  2  0
  4  6  1  0
  6 10  1  0
  6  7  2  0
  8  9  1  0
  9 21  1  0
  9 10  2  0
  5 11  1  0
 11 12  2  0
 11 15  1  0
 12 13  1  0
 13 16  1  0
 13 14  1  0
 14 15  2  0
 14 19  1  0
 16 17  2  0
 17 18  1  0
 18 19  2  0
 18 20  1  0
  2 22  1  0
  3 23  1  0
  7 24  1  0
 10 25  1  0
 15 26  1  0
 16 27  1  0
 17 28  1  0
 19 29  1  0
 20 30  1  1
 20 31  1  0
 20 32  1  0
 21 33  1  1
 21 34  1  0
 21 35  1  0
M  END
>  <Pose ID>  (555)
341

>  <Score>  (555)
-5.244504928588867

>  <smiles>  (555)
Cc1ccn2nc(Oc3c[nH]c4nc(C)cc-4c3)cc2c1

$$$$

     RDKit          3D

 29 31  0  0  0  0  0  0  0  0999 V2000
   28.6250    9.6310  -11.8920 C   0  0  0  0  0  0  0  0  0  0  0  0
   29.2560    8.4040  -11.8100 C   0  0  0  0  0  0  0  0  0  0  0  0
   28.7320    7.4090  -10.9920 N   0  0  0  0  0  0  0  0  0  0  0  0
   27.5900    7.6540  -10.2410 C   0  0  0  0  0  0  0  0  0  0  0  0
   27.4900    9.8920  -11.1240 C   0  0  0  0  0  0  0  0  0  0  0  0
   26.9690    8.8940  -10.3070 C   0  0  0  0  0  0  0  0  0  0  0  0
   26.9090    6.8630   -9.3910 N   0  0  0  0  0  0  0  0  0  0  0  0
   25.8400    7.5710   -8.8890 C   0  0  0  0  0  0  0  0  0  0  0  0
   26.0220    8.8090   -9.5440 C   0  0  0  0  0  0  0  0  0  0  0  0
   24.8040    7.3510   -8.0140 N   0  0  0  0  0  0  0  0  0  0  0  0
   24.6800    7.9650   -6.7600 C   0  0  0  0  0  0  0  0  0  0  0  0
   24.0340    9.1920   -6.6680 C   0  0  0  0  0  0  0  0  0  0  0  0
   23.9030    9.8160   -5.4330 C   0  0  0  0  0  0  0  0  0  0  0  0
   24.4170    9.2130   -4.2910 C   0  0  0  0  0  0  0  0  0  0  0  0
   25.0630    7.9860   -4.3840 N   0  0  0  0  0  0  0  0  0  0  0  0
   25.1940    7.3620   -5.6200 C   0  0  0  0  0  0  0  0  0  0  0  0
   29.1650   10.6940  -12.8170 C   0  0  1  0  0  0  0  0  0  0  0  0
   30.1709    8.2149  -12.3907 H   0  0  0  0  0  0  0  0  0  0  0  0
   29.1918    6.4886  -10.9431 H   0  0  0  0  0  0  0  0  0  0  0  0
   27.0100   10.8809  -11.1643 H   0  0  0  0  0  0  0  0  0  0  0  0
   25.3415    9.6563   -9.3737 H   0  0  0  0  0  0  0  0  0  0  0  0
   24.0678    6.6894   -8.2990 H   0  0  0  0  0  0  0  0  0  0  0  0
   23.6267    9.6689   -7.5717 H   0  0  0  0  0  0  0  0  0  0  0  0
   23.3923   10.7875   -5.3593 H   0  0  0  0  0  0  0  0  0  0  0  0
   24.3125    9.7069   -3.3137 H   0  0  0  0  0  0  0  0  0  0  0  0
   25.7049    6.3907   -5.6943 H   0  0  0  0  0  0  0  0  0  0  0  0
   29.5841   11.5191  -12.2223 H   0  0  0  0  0  0  0  0  0  0  0  0
   29.9530   10.2621  -13.4515 H   0  0  0  0  0  0  0  0  0  0  0  0
   28.3515   11.0757  -13.4515 H   0  0  0  0  0  0  0  0  0  0  0  0
  1 17  1  0
  1  2  2  0
  1  5  1  0
  2  3  1  0
  3  4  1  0
  4  6  1  0
  4  7  2  0
  5  6  2  0
  6  9  1  0
  7  8  1  0
  8  9  2  0
  8 10  1  0
 10 11  1  0
 11 12  2  0
 11 16  1  0
 12 13  1  0
 13 14  2  0
 14 15  1  0
 15 16  2  0
  2 18  1  0
  3 19  1  0
  5 20  1  0
  9 21  1  0
 10 22  1  0
 12 23  1  0
 13 24  1  0
 14 25  1  0
 16 26  1  0
 17 27  1  1
 17 28  1  0
 17 29  1  0
M  END
>  <Pose ID>  (556)
196

>  <Score>  (556)
-5.242737770080566

>  <smiles>  (556)
Cc1c[nH]c2nc(Nc3cccnc3)cc-2c1

$$$$

     RDKit          3D

 37 39  0  0  0  0  0  0  0  0999 V2000
   27.8540    7.8850   -9.8540 C   0  0  0  0  0  0  0  0  0  0  0  0
   26.9300    6.8510   -9.8740 N   0  0  0  0  0  0  0  0  0  0  0  0
   26.1660    6.5770   -8.7490 C   0  0  0  0  0  0  0  0  0  0  0  0
   28.0140    8.6500   -8.7030 N   0  0  0  0  0  0  0  0  0  0  0  0
   26.3270    7.3410   -7.5960 C   0  0  0  0  0  0  0  0  0  0  0  0
   27.1700    8.3600   -7.5680 C   0  0  0  0  0  0  0  0  0  0  0  0
   28.5410    8.1310  -10.8630 O   0  0  0  0  0  0  0  0  0  0  0  0
   25.6030    7.0320   -6.4720 N   0  0  0  0  0  0  0  0  0  0  0  0
   24.3440    7.5840   -6.1390 C   0  0  0  0  0  0  0  0  0  0  0  0
   23.2030    6.8550   -5.8260 N   0  0  0  0  0  0  0  0  0  0  0  0
   22.0230    7.5160   -5.5080 C   0  0  0  0  0  0  0  0  0  0  0  0
   21.9870    8.9070   -5.4970 C   0  0  0  0  0  0  0  0  0  0  0  0
   23.1300    9.6340   -5.8080 C   0  0  0  0  0  0  0  0  0  0  0  0
   24.3150    8.9690   -6.1020 C   0  0  0  0  0  0  0  0  0  0  0  0
   20.6910    9.3310   -5.1470 C   0  0  0  0  0  0  0  0  0  0  0  0
   20.4960   10.3830   -4.3050 N   0  0  0  0  0  0  0  0  0  0  0  0
   19.5220    8.7880   -5.5550 O   0  0  0  0  0  0  0  0  0  0  0  0
   18.5620    9.5540   -4.9450 C   0  0  0  0  0  0  0  0  0  0  0  0
   19.1440   10.5620   -4.1620 C   0  0  0  0  0  0  0  0  0  0  0  0
   23.0830   11.1420   -5.8290 C   0  0  1  0  0  0  0  0  0  0  0  0
   18.4360   11.6140   -3.3430 C   0  0  1  0  0  0  0  0  0  0  0  0
   19.3060   12.4640   -2.4930 C   0  0  1  0  0  0  0  0  0  0  0  0
   25.4334    5.7567   -8.7677 H   0  0  0  0  0  0  0  0  0  0  0  0
   28.7156    9.4029   -8.6617 H   0  0  0  0  0  0  0  0  0  0  0  0
   27.2286    8.9932   -6.6704 H   0  0  0  0  0  0  0  0  0  0  0  0
   26.0078    6.3448   -5.8202 H   0  0  0  0  0  0  0  0  0  0  0  0
   21.1178    6.9401   -5.2651 H   0  0  0  0  0  0  0  0  0  0  0  0
   25.2310    9.5431   -6.3056 H   0  0  0  0  0  0  0  0  0  0  0  0
   17.4786    9.3986   -5.0551 H   0  0  0  0  0  0  0  0  0  0  0  0
   23.0711   11.5229   -4.7971 H   0  0  0  0  0  0  0  0  0  0  0  0
   23.9695   11.5292   -6.3526 H   0  0  0  0  0  0  0  0  0  0  0  0
   22.1741   11.4733   -6.3526 H   0  0  0  0  0  0  0  0  0  0  0  0
   17.8937   12.2734   -4.0366 H   0  0  0  0  0  0  0  0  0  0  0  0
   17.7849   11.0636   -2.6479 H   0  0  0  0  0  0  0  0  0  0  0  0
   19.0960   12.2589   -1.4329 H   0  0  0  0  0  0  0  0  0  0  0  0
   20.3611   12.2392   -2.7080 H   0  0  0  0  0  0  0  0  0  0  0  0
   19.1058   13.5240   -2.7080 H   0  0  0  0  0  0  0  0  0  0  0  0
  8  5  1  0
  8  9  1  0
  9 14  1  0
  9 10  2  0
 10 11  1  0
 11 12  2  0
 12 13  1  0
 12 15  1  0
 13 14  2  0
 13 20  1  0
  1  7  2  0
  1  2  1  0
  1  4  1  0
  2  3  2  0
  3  5  1  0
  4  6  1  0
  5  6  2  0
 15 17  1  0
 15 16  2  0
 16 19  1  0
 17 18  1  0
 18 19  2  0
 19 21  1  0
 21 22  1  0
  3 23  1  0
  4 24  1  0
  6 25  1  0
  8 26  1  0
 11 27  1  0
 14 28  1  0
 18 29  1  0
 20 30  1  1
 20 31  1  0
 20 32  1  0
 21 33  1  6
 21 34  1  0
 22 35  1  1
 22 36  1  0
 22 37  1  0
M  END
>  <Pose ID>  (557)
118

>  <Score>  (557)
-5.240116596221924

>  <smiles>  (557)
CCc1coc(-c2cnc(Nc3cnc(=O)[nH]c3)cc2C)n1

$$$$

     RDKit          3D

 37 39  0  0  0  0  0  0  0  0999 V2000
   27.8020    7.9050   -9.6710 C   0  0  0  0  0  0  0  0  0  0  0  0
   26.9760    6.7910   -9.6330 N   0  0  0  0  0  0  0  0  0  0  0  0
   26.1800    6.5490   -8.5210 C   0  0  0  0  0  0  0  0  0  0  0  0
   27.8320    8.7820   -8.5890 N   0  0  0  0  0  0  0  0  0  0  0  0
   26.2130    7.4250   -7.4410 C   0  0  0  0  0  0  0  0  0  0  0  0
   26.9580    8.5160   -7.4710 C   0  0  0  0  0  0  0  0  0  0  0  0
   28.5150    8.1230  -10.6660 O   0  0  0  0  0  0  0  0  0  0  0  0
   25.4610    7.1510   -6.3240 N   0  0  0  0  0  0  0  0  0  0  0  0
   24.1440    7.6100   -6.0990 C   0  0  0  0  0  0  0  0  0  0  0  0
   23.0570    6.8080   -5.7710 N   0  0  0  0  0  0  0  0  0  0  0  0
   21.8070    7.3810   -5.5680 C   0  0  0  0  0  0  0  0  0  0  0  0
   21.6460    8.7570   -5.6920 C   0  0  0  0  0  0  0  0  0  0  0  0
   22.7330    9.5580   -6.0180 C   0  0  0  0  0  0  0  0  0  0  0  0
   23.9880    8.9820   -6.1940 C   0  0  0  0  0  0  0  0  0  0  0  0
   20.3020    9.0860   -5.4390 C   0  0  0  0  0  0  0  0  0  0  0  0
   19.2080    8.6220   -5.9340 N   0  0  0  0  0  0  0  0  0  0  0  0
   18.1830    9.3060   -5.2630 O   0  0  0  0  0  0  0  0  0  0  0  0
   20.0240   10.1240   -4.3960 C   0  0  0  0  0  0  0  0  0  0  0  0
   18.5280   10.1640   -4.4420 C   0  0  0  0  0  0  0  0  0  0  0  0
   17.6210   11.0700   -3.6450 C   0  0  1  0  0  0  0  0  0  0  0  0
   17.5770   10.4450   -2.2500 C   0  0  1  0  0  0  0  0  0  0  0  0
   16.6820   11.2830   -1.3080 C   0  0  1  0  0  0  0  0  0  0  0  0
   25.5245    5.6660   -8.4943 H   0  0  0  0  0  0  0  0  0  0  0  0
   28.4606    9.5980   -8.5867 H   0  0  0  0  0  0  0  0  0  0  0  0
   26.9118    9.2294   -6.6350 H   0  0  0  0  0  0  0  0  0  0  0  0
   25.8910    6.5654   -5.5939 H   0  0  0  0  0  0  0  0  0  0  0  0
   20.9461    6.7470   -5.3096 H   0  0  0  0  0  0  0  0  0  0  0  0
   22.6025   10.6438   -6.1367 H   0  0  0  0  0  0  0  0  0  0  0  0
   24.8584    9.6192   -6.4092 H   0  0  0  0  0  0  0  0  0  0  0  0
   20.7239   10.6973   -3.7704 H   0  0  0  0  0  0  0  0  0  0  0  0
   18.0323   12.0892   -3.6007 H   0  0  0  0  0  0  0  0  0  0  0  0
   16.6206   11.1570   -4.0939 H   0  0  0  0  0  0  0  0  0  0  0  0
   17.1706    9.4254   -2.3230 H   0  0  0  0  0  0  0  0  0  0  0  0
   18.5975   10.4186   -1.8401 H   0  0  0  0  0  0  0  0  0  0  0  0
   16.9310   11.0499   -0.2622 H   0  0  0  0  0  0  0  0  0  0  0  0
   16.8530   12.3533   -1.4958 H   0  0  0  0  0  0  0  0  0  0  0  0
   15.6253   11.0420   -1.4958 H   0  0  0  0  0  0  0  0  0  0  0  0
  8  5  1  0
  8  9  1  0
  9 14  1  0
  9 10  2  0
 10 11  1  0
 11 12  2  0
 12 13  1  0
 12 15  1  0
 13 14  2  0
  1  7  2  0
  1  2  1  0
  1  4  1  0
  2  3  2  0
  3  5  1  0
  4  6  1  0
  5  6  2  0
 15 16  2  0
 15 18  1  0
 16 17  1  0
 17 19  1  0
 18 19  2  0
 19 20  1  0
 20 21  1  0
 21 22  1  0
  3 23  1  0
  4 24  1  0
  6 25  1  0
  8 26  1  0
 11 27  1  0
 13 28  1  0
 14 29  1  0
 18 30  1  0
 20 31  1  1
 20 32  1  0
 21 33  1  6
 21 34  1  0
 22 35  1  1
 22 36  1  0
 22 37  1  0
M  END
>  <Pose ID>  (558)
124

>  <Score>  (558)
-5.236315727233887

>  <smiles>  (558)
CCCc1cc(-c2ccc(Nc3cnc(=O)[nH]c3)nc2)no1

$$$$

     RDKit          3D

 37 40  0  0  0  0  0  0  0  0999 V2000
   27.4580    8.3500  -10.4000 C   0  0  0  0  0  0  0  0  0  0  0  0
   28.2540    7.3970  -11.0220 C   0  0  0  0  0  0  0  0  0  0  0  0
   29.2980    7.7970  -11.8480 N   0  0  0  0  0  0  0  0  0  0  0  0
   29.5470    9.1500  -12.0510 C   0  0  0  0  0  0  0  0  0  0  0  0
   26.4120    7.7690   -9.5610 O   0  0  0  0  0  0  0  0  0  0  0  0
   28.7490   10.1040  -11.4280 C   0  0  0  0  0  0  0  0  0  0  0  0
   27.7060    9.7020  -10.6010 C   0  0  0  0  0  0  0  0  0  0  0  0
   30.4810    9.7750  -12.7920 N   0  0  0  0  0  0  0  0  0  0  0  0
   30.3080   11.1340  -12.6710 C   0  0  0  0  0  0  0  0  0  0  0  0
   29.1950   11.1730  -11.8020 C   0  0  0  0  0  0  0  0  0  0  0  0
   25.6780    8.4890   -8.6110 C   0  0  0  0  0  0  0  0  0  0  0  0
   25.1830    9.7230   -8.9970 N   0  0  0  0  0  0  0  0  0  0  0  0
   24.5480   10.2460   -7.9410 N   0  0  0  0  0  0  0  0  0  0  0  0
   24.5760    9.3860   -6.8510 C   0  0  0  0  0  0  0  0  0  0  0  0
   25.2640    8.3310   -7.3010 C   0  0  0  0  0  0  0  0  0  0  0  0
   23.8930   11.4680   -7.8450 C   0  0  0  0  0  0  0  0  0  0  0  0
   23.2670   11.8290   -6.6570 N   0  0  0  0  0  0  0  0  0  0  0  0
   23.2940   10.9680   -5.5670 C   0  0  0  0  0  0  0  0  0  0  0  0
   23.9500    9.7460   -5.6640 C   0  0  0  0  0  0  0  0  0  0  0  0
   31.0880   12.2670  -13.2920 C   0  0  1  0  0  0  0  0  0  0  0  0
   30.1370   13.3000  -13.9320 C   0  0  1  0  0  0  0  0  0  0  0  0
   25.5570    7.1060   -6.4710 C   0  0  1  0  0  0  0  0  0  0  0  0
   28.0585    6.3265  -10.8611 H   0  0  0  0  0  0  0  0  0  0  0  0
   29.8879    7.0904  -12.3103 H   0  0  0  0  0  0  0  0  0  0  0  0
   27.0764   10.4556  -10.1052 H   0  0  0  0  0  0  0  0  0  0  0  0
   28.7515   12.1261  -11.4780 H   0  0  0  0  0  0  0  0  0  0  0  0
   23.8698   12.1492   -8.7083 H   0  0  0  0  0  0  0  0  0  0  0  0
   22.7968   11.2529   -4.6280 H   0  0  0  0  0  0  0  0  0  0  0  0
   23.9734    9.0643   -4.8011 H   0  0  0  0  0  0  0  0  0  0  0  0
   31.6870   12.7620  -12.5134 H   0  0  0  0  0  0  0  0  0  0  0  0
   31.7425   11.8571  -14.0754 H   0  0  0  0  0  0  0  0  0  0  0  0
   29.6197   13.8619  -13.1404 H   0  0  0  0  0  0  0  0  0  0  0  0
   30.7175   13.9956  -14.5559 H   0  0  0  0  0  0  0  0  0  0  0  0
   29.3959   12.7789  -14.5559 H   0  0  0  0  0  0  0  0  0  0  0  0
   25.4955    7.3632   -5.4033 H   0  0  0  0  0  0  0  0  0  0  0  0
   24.8211    6.3218   -6.7022 H   0  0  0  0  0  0  0  0  0  0  0  0
   26.5681    6.7397   -6.7022 H   0  0  0  0  0  0  0  0  0  0  0  0
  1  2  2  0
  1  7  1  0
  1  5  1  0
  2  3  1  0
  3  4  1  0
  4  8  2  0
  4  6  1  0
  6 10  1  0
  6  7  2  0
  8  9  1  0
  9 20  1  0
  9 10  2  0
 20 21  1  0
  5 11  1  0
 11 12  2  0
 11 15  1  0
 12 13  1  0
 13 16  1  0
 13 14  1  0
 14 15  2  0
 14 19  1  0
 15 22  1  0
 16 17  2  0
 17 18  1  0
 18 19  2  0
  2 23  1  0
  3 24  1  0
  7 25  1  0
 10 26  1  0
 16 27  1  0
 18 28  1  0
 19 29  1  0
 20 30  1  1
 20 31  1  0
 21 32  1  1
 21 33  1  0
 21 34  1  0
 22 35  1  1
 22 36  1  0
 22 37  1  0
M  END
>  <Pose ID>  (559)
288

>  <Score>  (559)
-5.2354350090026855

>  <smiles>  (559)
CCc1cc2cc(Oc3nn4cnccc4c3C)c[nH]c-2n1

$$$$

     RDKit          3D

 29 31  0  0  0  0  0  0  0  0999 V2000
   27.8310    7.8430  -10.2330 C   0  0  0  0  0  0  0  0  0  0  0  0
   28.8060    7.1270  -10.9160 C   0  0  0  0  0  0  0  0  0  0  0  0
   29.6470    7.7770  -11.8100 N   0  0  0  0  0  0  0  0  0  0  0  0
   29.5140    9.1440  -12.0220 C   0  0  0  0  0  0  0  0  0  0  0  0
   27.0370    7.0170   -9.3260 O   0  0  0  0  0  0  0  0  0  0  0  0
   28.5370    9.8610  -11.3380 C   0  0  0  0  0  0  0  0  0  0  0  0
   27.6980    9.2100  -10.4430 C   0  0  0  0  0  0  0  0  0  0  0  0
   30.1970    9.9840  -12.8230 N   0  0  0  0  0  0  0  0  0  0  0  0
   29.6780   11.2520  -12.6800 C   0  0  0  0  0  0  0  0  0  0  0  0
   28.6590   11.0060  -11.7360 C   0  0  0  0  0  0  0  0  0  0  0  0
   26.2060    7.5290   -8.3230 C   0  0  0  0  0  0  0  0  0  0  0  0
   25.3770    8.5840   -8.6680 N   0  0  0  0  0  0  0  0  0  0  0  0
   24.6690    8.9560   -7.5380 N   0  0  0  0  0  0  0  0  0  0  0  0
   25.0330    8.1530   -6.5280 C   0  0  0  0  0  0  0  0  0  0  0  0
   25.9400    7.2840   -6.9870 C   0  0  0  0  0  0  0  0  0  0  0  0
   23.7190   10.0380   -7.5850 C   0  0  1  0  0  0  0  0  0  0  0  0
   24.5080    8.2180   -5.1150 C   0  0  1  0  0  0  0  0  0  0  0  0
   28.9120    6.0450  -10.7487 H   0  0  0  0  0  0  0  0  0  0  0  0
   30.3697    7.2456  -12.3162 H   0  0  0  0  0  0  0  0  0  0  0  0
   26.9276    9.7771   -9.9000 H   0  0  0  0  0  0  0  0  0  0  0  0
   29.9750   12.1931  -13.1660 H   0  0  0  0  0  0  0  0  0  0  0  0
   28.0035   11.8123  -11.3752 H   0  0  0  0  0  0  0  0  0  0  0  0
   26.4077    6.4884   -6.3884 H   0  0  0  0  0  0  0  0  0  0  0  0
   23.4549   10.3388   -6.5604 H   0  0  0  0  0  0  0  0  0  0  0  0
   24.1633   10.8933   -8.1152 H   0  0  0  0  0  0  0  0  0  0  0  0
   22.8135    9.7081   -8.1152 H   0  0  0  0  0  0  0  0  0  0  0  0
   25.3443    8.1145   -4.4080 H   0  0  0  0  0  0  0  0  0  0  0  0
   24.0088    9.1848   -4.9534 H   0  0  0  0  0  0  0  0  0  0  0  0
   23.7881    7.4021   -4.9534 H   0  0  0  0  0  0  0  0  0  0  0  0
  1  2  2  0
  1  7  1  0
  1  5  1  0
  2  3  1  0
  3  4  1  0
  4  8  2  0
  4  6  1  0
  6 10  1  0
  6  7  2  0
  8  9  1  0
  9 10  2  0
  5 11  1  0
 11 12  2  0
 11 15  1  0
 12 13  1  0
 13 16  1  0
 13 14  1  0
 14 15  2  0
 14 17  1  0
  2 18  1  0
  3 19  1  0
  7 20  1  0
  9 21  1  0
 10 22  1  0
 15 23  1  0
 16 24  1  1
 16 25  1  0
 16 26  1  0
 17 27  1  1
 17 28  1  0
 17 29  1  0
M  END
>  <Pose ID>  (560)
475

>  <Score>  (560)
-5.228372097015381

>  <smiles>  (560)
Cc1cc(Oc2c[nH]c3nccc-3c2)nn1C

$$$$

     RDKit          3D

 31 34  0  0  0  0  0  0  0  0999 V2000
   27.8480    7.8210  -10.2380 C   0  0  0  0  0  0  0  0  0  0  0  0
   28.8360    7.1170  -10.9160 C   0  0  0  0  0  0  0  0  0  0  0  0
   29.6700    7.7770  -11.8090 N   0  0  0  0  0  0  0  0  0  0  0  0
   29.5190    9.1420  -12.0250 C   0  0  0  0  0  0  0  0  0  0  0  0
   27.0630    6.9860   -9.3330 O   0  0  0  0  0  0  0  0  0  0  0  0
   28.5280    9.8470  -11.3480 C   0  0  0  0  0  0  0  0  0  0  0  0
   27.6960    9.1850  -10.4540 C   0  0  0  0  0  0  0  0  0  0  0  0
   30.1920    9.9900  -12.8270 N   0  0  0  0  0  0  0  0  0  0  0  0
   29.6540   11.2500  -12.6910 C   0  0  0  0  0  0  0  0  0  0  0  0
   28.6340   10.9920  -11.7490 C   0  0  0  0  0  0  0  0  0  0  0  0
   26.2200    7.4890   -8.3340 C   0  0  0  0  0  0  0  0  0  0  0  0
   25.3780    8.5300   -8.6840 N   0  0  0  0  0  0  0  0  0  0  0  0
   24.6910    8.8730   -7.5860 N   0  0  0  0  0  0  0  0  0  0  0  0
   25.0290    8.0730   -6.5020 C   0  0  0  0  0  0  0  0  0  0  0  0
   25.9540    7.2440   -6.9990 C   0  0  0  0  0  0  0  0  0  0  0  0
   23.7290    9.8660   -7.4430 C   0  0  0  0  0  0  0  0  0  0  0  0
   23.1060   10.0590   -6.2160 N   0  0  0  0  0  0  0  0  0  0  0  0
   23.4440    9.2580   -5.1310 C   0  0  0  0  0  0  0  0  0  0  0  0
   24.4060    8.2650   -5.2740 C   0  0  0  0  0  0  0  0  0  0  0  0
   22.7670    9.4670   -3.7990 C   0  0  1  0  0  0  0  0  0  0  0  0
   28.9574    6.0371  -10.7453 H   0  0  0  0  0  0  0  0  0  0  0  0
   30.4014    7.2545  -12.3119 H   0  0  0  0  0  0  0  0  0  0  0  0
   26.9150    9.7421   -9.9158 H   0  0  0  0  0  0  0  0  0  0  0  0
   29.9389   12.1936  -13.1794 H   0  0  0  0  0  0  0  0  0  0  0  0
   27.9652   11.7896  -11.3934 H   0  0  0  0  0  0  0  0  0  0  0  0
   26.4477    6.4558   -6.4117 H   0  0  0  0  0  0  0  0  0  0  0  0
   23.4607   10.4993   -8.3015 H   0  0  0  0  0  0  0  0  0  0  0  0
   24.6743    7.6313   -4.4159 H   0  0  0  0  0  0  0  0  0  0  0  0
   23.4773    9.2477   -2.9882 H   0  0  0  0  0  0  0  0  0  0  0  0
   22.4300   10.5110   -3.7188 H   0  0  0  0  0  0  0  0  0  0  0  0
   21.9001    8.7947   -3.7188 H   0  0  0  0  0  0  0  0  0  0  0  0
  5  1  1  0
  5 11  1  0
  1  2  2  0
  1  7  1  0
  2  3  1  0
  3  4  1  0
  4  8  2  0
  4  6  1  0
  6 10  1  0
  6  7  2  0
  8  9  1  0
  9 10  2  0
 11 12  2  0
 11 15  1  0
 12 13  1  0
 13 16  1  0
 13 14  1  0
 14 15  2  0
 14 19  1  0
 16 17  2  0
 17 18  1  0
 18 19  2  0
 18 20  1  0
  2 21  1  0
  3 22  1  0
  7 23  1  0
  9 24  1  0
 10 25  1  0
 15 26  1  0
 16 27  1  0
 19 28  1  0
 20 29  1  1
 20 30  1  0
 20 31  1  0
M  END
>  <Pose ID>  (561)
272

>  <Score>  (561)
-5.216477870941162

>  <smiles>  (561)
Cc1cc2cc(Oc3c[nH]c4nccc-4c3)nn2cn1

$$$$

     RDKit          3D

 32 35  0  0  0  0  0  0  0  0999 V2000
   27.9290    7.8430  -10.3280 C   0  0  0  0  0  0  0  0  0  0  0  0
   28.9020    7.1250  -11.0100 C   0  0  0  0  0  0  0  0  0  0  0  0
   29.7600    7.7780  -11.8870 N   0  0  0  0  0  0  0  0  0  0  0  0
   29.6450    9.1500  -12.0800 C   0  0  0  0  0  0  0  0  0  0  0  0
   27.1150    7.0140   -9.4420 O   0  0  0  0  0  0  0  0  0  0  0  0
   28.6690    9.8680  -11.3970 C   0  0  0  0  0  0  0  0  0  0  0  0
   27.8140    9.2140  -10.5190 C   0  0  0  0  0  0  0  0  0  0  0  0
   30.3470    9.9930  -12.8630 N   0  0  0  0  0  0  0  0  0  0  0  0
   29.8410   11.2650  -12.7080 C   0  0  0  0  0  0  0  0  0  0  0  0
   28.8090   11.0170  -11.7770 C   0  0  0  0  0  0  0  0  0  0  0  0
   26.2790    7.5210   -8.4400 C   0  0  0  0  0  0  0  0  0  0  0  0
   25.4650    8.5900   -8.7780 N   0  0  0  0  0  0  0  0  0  0  0  0
   24.7930    8.9300   -7.7100 N   0  0  0  0  0  0  0  0  0  0  0  0
   25.0640    8.1550   -6.5880 C   0  0  0  0  0  0  0  0  0  0  0  0
   25.9960    7.2610   -7.1110 C   0  0  0  0  0  0  0  0  0  0  0  0
   23.8610    9.9590   -7.6330 C   0  0  0  0  0  0  0  0  0  0  0  0
   23.2020   10.2140   -6.4370 C   0  0  0  0  0  0  0  0  0  0  0  0
   23.4740    9.4390   -5.3150 C   0  0  0  0  0  0  0  0  0  0  0  0
   24.4060    8.4100   -5.3910 C   0  0  0  0  0  0  0  0  0  0  0  0
   30.2690   12.5600  -13.3530 C   0  0  1  0  0  0  0  0  0  0  0  0
   28.9938    6.0397  -10.8563 H   0  0  0  0  0  0  0  0  0  0  0  0
   30.4812    7.2454  -12.3940 H   0  0  0  0  0  0  0  0  0  0  0  0
   27.0454    9.7822   -9.9746 H   0  0  0  0  0  0  0  0  0  0  0  0
   28.1597   11.8259  -11.4107 H   0  0  0  0  0  0  0  0  0  0  0  0
   26.4535    6.4436   -6.5343 H   0  0  0  0  0  0  0  0  0  0  0  0
   23.6452   10.5720   -8.5205 H   0  0  0  0  0  0  0  0  0  0  0  0
   22.4653   11.0287   -6.3776 H   0  0  0  0  0  0  0  0  0  0  0  0
   22.9521    9.6399   -4.3678 H   0  0  0  0  0  0  0  0  0  0  0  0
   24.6225    7.7976   -4.5033 H   0  0  0  0  0  0  0  0  0  0  0  0
   30.5121   13.2957  -12.5722 H   0  0  0  0  0  0  0  0  0  0  0  0
   31.1562   12.3824  -13.9785 H   0  0  0  0  0  0  0  0  0  0  0  0
   29.4507   12.9461  -13.9785 H   0  0  0  0  0  0  0  0  0  0  0  0
  1  2  2  0
  1  7  1  0
  1  5  1  0
  2  3  1  0
  3  4  1  0
  4  8  2  0
  4  6  1  0
  6 10  1  0
  6  7  2  0
  8  9  1  0
  9 20  1  0
  9 10  2  0
  5 11  1  0
 11 12  2  0
 11 15  1  0
 12 13  1  0
 13 16  1  0
 13 14  1  0
 14 15  2  0
 14 19  1  0
 16 17  2  0
 17 18  1  0
 18 19  2  0
  2 21  1  0
  3 22  1  0
  7 23  1  0
 10 24  1  0
 15 25  1  0
 16 26  1  0
 17 27  1  0
 18 28  1  0
 19 29  1  0
 20 30  1  1
 20 31  1  0
 20 32  1  0
M  END
>  <Pose ID>  (562)
331

>  <Score>  (562)
-5.211244106292725

>  <smiles>  (562)
Cc1cc2cc(Oc3cc4ccccn4n3)c[nH]c-2n1

$$$$

     RDKit          3D

 31 34  0  0  0  0  0  0  0  0999 V2000
   27.8900    7.8560  -10.2860 C   0  0  0  0  0  0  0  0  0  0  0  0
   28.8520    7.1320  -10.9780 C   0  0  0  0  0  0  0  0  0  0  0  0
   29.7040    7.7790  -11.8640 N   0  0  0  0  0  0  0  0  0  0  0  0
   29.5950    9.1510  -12.0590 C   0  0  0  0  0  0  0  0  0  0  0  0
   27.0810    7.0340   -9.3920 O   0  0  0  0  0  0  0  0  0  0  0  0
   28.6300    9.8760  -11.3660 C   0  0  0  0  0  0  0  0  0  0  0  0
   27.7800    9.2280  -10.4800 C   0  0  0  0  0  0  0  0  0  0  0  0
   30.2940    9.9900  -12.8500 N   0  0  0  0  0  0  0  0  0  0  0  0
   29.7960   11.2640  -12.6920 C   0  0  0  0  0  0  0  0  0  0  0  0
   28.7710   11.0230  -11.7500 C   0  0  0  0  0  0  0  0  0  0  0  0
   26.2570    7.5460   -8.3810 C   0  0  0  0  0  0  0  0  0  0  0  0
   25.4470    8.6190   -8.7140 N   0  0  0  0  0  0  0  0  0  0  0  0
   24.7840    8.9640   -7.6330 N   0  0  0  0  0  0  0  0  0  0  0  0
   25.0530    8.1900   -6.5110 C   0  0  0  0  0  0  0  0  0  0  0  0
   25.9860    7.2890   -7.0490 C   0  0  0  0  0  0  0  0  0  0  0  0
   23.8630   10.0020   -7.5560 C   0  0  0  0  0  0  0  0  0  0  0  0
   23.2100   10.2660   -6.3590 C   0  0  0  0  0  0  0  0  0  0  0  0
   23.4800    9.4920   -5.2360 C   0  0  0  0  0  0  0  0  0  0  0  0
   24.4000    8.4540   -5.3120 N   0  0  0  0  0  0  0  0  0  0  0  0
   30.2250   12.5550  -13.3430 C   0  0  1  0  0  0  0  0  0  0  0  0
   28.9393    6.0463  -10.8245 H   0  0  0  0  0  0  0  0  0  0  0  0
   30.4173    7.2415  -12.3771 H   0  0  0  0  0  0  0  0  0  0  0  0
   27.0185    9.8011   -9.9308 H   0  0  0  0  0  0  0  0  0  0  0  0
   28.1287   11.8356  -11.3798 H   0  0  0  0  0  0  0  0  0  0  0  0
   26.4488    6.4717   -6.4764 H   0  0  0  0  0  0  0  0  0  0  0  0
   23.6510   10.6152   -8.4442 H   0  0  0  0  0  0  0  0  0  0  0  0
   22.4799   11.0866   -6.2995 H   0  0  0  0  0  0  0  0  0  0  0  0
   22.9649    9.7017   -4.2870 H   0  0  0  0  0  0  0  0  0  0  0  0
   30.4705   13.2937  -12.5658 H   0  0  0  0  0  0  0  0  0  0  0  0
   31.1110   12.3732  -13.9690 H   0  0  0  0  0  0  0  0  0  0  0  0
   29.4064   12.9397  -13.9690 H   0  0  0  0  0  0  0  0  0  0  0  0
  1  2  2  0
  1  7  1  0
  1  5  1  0
  2  3  1  0
  3  4  1  0
  4  8  2  0
  4  6  1  0
  6 10  1  0
  6  7  2  0
  8  9  1  0
  9 20  1  0
  9 10  2  0
  5 11  1  0
 11 12  2  0
 11 15  1  0
 12 13  1  0
 13 16  1  0
 13 14  1  0
 14 15  2  0
 14 19  1  0
 16 17  2  0
 17 18  1  0
 18 19  2  0
  2 21  1  0
  3 22  1  0
  7 23  1  0
 10 24  1  0
 15 25  1  0
 16 26  1  0
 17 27  1  0
 18 28  1  0
 20 29  1  1
 20 30  1  0
 20 31  1  0
M  END
>  <Pose ID>  (563)
353

>  <Score>  (563)
-5.210817337036133

>  <smiles>  (563)
Cc1cc2cc(Oc3cc4ncccn4n3)c[nH]c-2n1

$$$$

     RDKit          3D

 26 28  0  0  0  0  0  0  0  0999 V2000
   27.8370    7.8560  -10.2130 C   0  0  0  0  0  0  0  0  0  0  0  0
   28.7920    7.1330  -10.9170 C   0  0  0  0  0  0  0  0  0  0  0  0
   29.6210    7.7780  -11.8260 N   0  0  0  0  0  0  0  0  0  0  0  0
   29.4950    9.1470  -12.0330 C   0  0  0  0  0  0  0  0  0  0  0  0
   27.0540    7.0350   -9.2920 O   0  0  0  0  0  0  0  0  0  0  0  0
   28.5380    9.8700  -11.3280 C   0  0  0  0  0  0  0  0  0  0  0  0
   27.7110    9.2240  -10.4180 C   0  0  0  0  0  0  0  0  0  0  0  0
   30.1690    9.9830  -12.8460 N   0  0  0  0  0  0  0  0  0  0  0  0
   29.6640   11.2550  -12.6900 C   0  0  0  0  0  0  0  0  0  0  0  0
   28.6610   11.0150  -11.7260 C   0  0  0  0  0  0  0  0  0  0  0  0
   26.2480    7.5510   -8.2720 C   0  0  0  0  0  0  0  0  0  0  0  0
   25.4210    8.6140   -8.5980 N   0  0  0  0  0  0  0  0  0  0  0  0
   24.7390    8.9890   -7.4540 N   0  0  0  0  0  0  0  0  0  0  0  0
   25.1160    8.1810   -6.4530 C   0  0  0  0  0  0  0  0  0  0  0  0
   26.0060    7.3060   -6.9310 C   0  0  0  0  0  0  0  0  0  0  0  0
   23.7970   10.0790   -7.4800 C   0  0  1  0  0  0  0  0  0  0  0  0
   28.8916    6.0496  -10.7545 H   0  0  0  0  0  0  0  0  0  0  0  0
   30.3295    7.2417  -12.3470 H   0  0  0  0  0  0  0  0  0  0  0  0
   26.9557    9.7962   -9.8593 H   0  0  0  0  0  0  0  0  0  0  0  0
   29.9595   12.1947  -13.1795 H   0  0  0  0  0  0  0  0  0  0  0  0
   28.0191   11.8257  -11.3508 H   0  0  0  0  0  0  0  0  0  0  0  0
   24.7545    8.2298   -5.4152 H   0  0  0  0  0  0  0  0  0  0  0  0
   26.4787    6.5055   -6.3430 H   0  0  0  0  0  0  0  0  0  0  0  0
   23.5451   10.3705   -6.4497 H   0  0  0  0  0  0  0  0  0  0  0  0
   24.2429   10.9366   -8.0051 H   0  0  0  0  0  0  0  0  0  0  0  0
   22.8839    9.7620   -8.0051 H   0  0  0  0  0  0  0  0  0  0  0  0
  1  2  2  0
  1  7  1  0
  1  5  1  0
  2  3  1  0
  3  4  1  0
  4  8  2  0
  4  6  1  0
  6 10  1  0
  6  7  2  0
  8  9  1  0
  9 10  2  0
  5 11  1  0
 11 12  2  0
 11 15  1  0
 12 13  1  0
 13 16  1  0
 13 14  1  0
 14 15  2  0
  2 17  1  0
  3 18  1  0
  7 19  1  0
  9 20  1  0
 10 21  1  0
 14 22  1  0
 15 23  1  0
 16 24  1  1
 16 25  1  0
 16 26  1  0
M  END
>  <Pose ID>  (564)
229

>  <Score>  (564)
-5.205080509185791

>  <smiles>  (564)
Cn1ccc(Oc2c[nH]c3nccc-3c2)n1

$$$$

     RDKit          3D

 31 34  0  0  0  0  0  0  0  0999 V2000
   27.8440    7.8090  -10.2360 C   0  0  0  0  0  0  0  0  0  0  0  0
   28.8370    7.1120  -10.9150 C   0  0  0  0  0  0  0  0  0  0  0  0
   29.6650    7.7780  -11.8100 N   0  0  0  0  0  0  0  0  0  0  0  0
   29.5030    9.1410  -12.0260 C   0  0  0  0  0  0  0  0  0  0  0  0
   27.0670    6.9680   -9.3300 O   0  0  0  0  0  0  0  0  0  0  0  0
   28.5080    9.8390  -11.3480 C   0  0  0  0  0  0  0  0  0  0  0  0
   27.6820    9.1720  -10.4530 C   0  0  0  0  0  0  0  0  0  0  0  0
   30.1690    9.9940  -12.8290 N   0  0  0  0  0  0  0  0  0  0  0  0
   29.6220   11.2500  -12.6930 C   0  0  0  0  0  0  0  0  0  0  0  0
   28.6050   10.9850  -11.7490 C   0  0  0  0  0  0  0  0  0  0  0  0
   26.2210    7.4660   -8.3300 C   0  0  0  0  0  0  0  0  0  0  0  0
   25.3710    8.5000   -8.6800 N   0  0  0  0  0  0  0  0  0  0  0  0
   24.6830    8.8390   -7.5810 N   0  0  0  0  0  0  0  0  0  0  0  0
   25.0280    8.0420   -6.4970 C   0  0  0  0  0  0  0  0  0  0  0  0
   25.9590    7.2190   -6.9950 C   0  0  0  0  0  0  0  0  0  0  0  0
   23.7140    9.8250   -7.4370 C   0  0  0  0  0  0  0  0  0  0  0  0
   23.0910   10.0130   -6.2090 N   0  0  0  0  0  0  0  0  0  0  0  0
   23.4360    9.2150   -5.1250 C   0  0  0  0  0  0  0  0  0  0  0  0
   24.4050    8.2290   -5.2680 C   0  0  0  0  0  0  0  0  0  0  0  0
   27.6810   12.0720  -11.2610 C   0  0  1  0  0  0  0  0  0  0  0  0
   28.9671    6.0332  -10.7436 H   0  0  0  0  0  0  0  0  0  0  0  0
   30.3996    7.2609  -12.3139 H   0  0  0  0  0  0  0  0  0  0  0  0
   26.8975    9.7239   -9.9145 H   0  0  0  0  0  0  0  0  0  0  0  0
   29.8992   12.1953  -13.1824 H   0  0  0  0  0  0  0  0  0  0  0  0
   26.4593    6.4345   -6.4082 H   0  0  0  0  0  0  0  0  0  0  0  0
   23.4402   10.4565   -8.2950 H   0  0  0  0  0  0  0  0  0  0  0  0
   22.9420    9.3637   -4.1535 H   0  0  0  0  0  0  0  0  0  0  0  0
   24.6787    7.5973   -4.4100 H   0  0  0  0  0  0  0  0  0  0  0  0
   27.6737   12.0806  -10.1611 H   0  0  0  0  0  0  0  0  0  0  0  0
   28.0319   13.0459  -11.6330 H   0  0  0  0  0  0  0  0  0  0  0  0
   26.6633   11.8825  -11.6330 H   0  0  0  0  0  0  0  0  0  0  0  0
  1  2  2  0
  1  7  1  0
  1  5  1  0
  2  3  1  0
  3  4  1  0
  4  8  2  0
  4  6  1  0
  6 10  1  0
  6  7  2  0
  8  9  1  0
  9 10  2  0
 10 20  1  0
  5 11  1  0
 11 12  2  0
 11 15  1  0
 12 13  1  0
 13 16  1  0
 13 14  1  0
 14 15  2  0
 14 19  1  0
 16 17  2  0
 17 18  1  0
 18 19  2  0
  2 21  1  0
  3 22  1  0
  7 23  1  0
  9 24  1  0
 15 25  1  0
 16 26  1  0
 18 27  1  0
 19 28  1  0
 20 29  1  1
 20 30  1  0
 20 31  1  0
M  END
>  <Pose ID>  (565)
273

>  <Score>  (565)
-5.204981327056885

>  <smiles>  (565)
Cc1cnc2[nH]cc(Oc3cc4ccncn4n3)cc1-2

$$$$

     RDKit          3D

 37 39  0  0  0  0  0  0  0  0999 V2000
   27.7600    7.9510   -9.7800 C   0  0  0  0  0  0  0  0  0  0  0  0
   26.9700    6.8130   -9.7130 N   0  0  0  0  0  0  0  0  0  0  0  0
   26.2340    6.5410   -8.5660 C   0  0  0  0  0  0  0  0  0  0  0  0
   27.8120    8.8260   -8.7010 N   0  0  0  0  0  0  0  0  0  0  0  0
   26.2900    7.4150   -7.4850 C   0  0  0  0  0  0  0  0  0  0  0  0
   27.0000    8.5290   -7.5440 C   0  0  0  0  0  0  0  0  0  0  0  0
   28.4200    8.1950  -10.8080 O   0  0  0  0  0  0  0  0  0  0  0  0
   25.5980    7.1150   -6.3360 N   0  0  0  0  0  0  0  0  0  0  0  0
   24.2790    7.5340   -6.0480 C   0  0  0  0  0  0  0  0  0  0  0  0
   23.2330    6.6990   -5.6760 N   0  0  0  0  0  0  0  0  0  0  0  0
   21.9770    7.2310   -5.4130 C   0  0  0  0  0  0  0  0  0  0  0  0
   21.7690    8.6030   -5.5250 C   0  0  0  0  0  0  0  0  0  0  0  0
   22.8150    9.4380   -5.8960 C   0  0  0  0  0  0  0  0  0  0  0  0
   24.0770    8.9020   -6.1330 C   0  0  0  0  0  0  0  0  0  0  0  0
   20.4310    8.8910   -5.2080 C   0  0  0  0  0  0  0  0  0  0  0  0
   19.3950    8.0180   -5.3080 O   0  0  0  0  0  0  0  0  0  0  0  0
   18.2580    8.6630   -4.9120 N   0  0  0  0  0  0  0  0  0  0  0  0
   18.5950    9.9200   -4.5620 C   0  0  0  0  0  0  0  0  0  0  0  0
   19.9440   10.0870   -4.7800 C   0  0  0  0  0  0  0  0  0  0  0  0
   17.6530   10.9670   -4.0210 C   0  0  1  0  0  0  0  0  0  0  0  0
   17.2040   10.4270   -2.6270 C   0  0  1  0  0  0  0  0  0  0  0  0
   18.3430   12.3510   -4.2060 C   0  0  1  0  0  0  0  0  0  0  0  0
   25.6090    5.6374   -8.5130 H   0  0  0  0  0  0  0  0  0  0  0  0
   28.4126    9.6624   -8.7259 H   0  0  0  0  0  0  0  0  0  0  0  0
   26.9719    9.2372   -6.7028 H   0  0  0  0  0  0  0  0  0  0  0  0
   26.0782    6.5397   -5.6293 H   0  0  0  0  0  0  0  0  0  0  0  0
   21.1490    6.5700   -5.1171 H   0  0  0  0  0  0  0  0  0  0  0  0
   22.6463   10.5198   -6.0022 H   0  0  0  0  0  0  0  0  0  0  0  0
   24.9161    9.5658   -6.3884 H   0  0  0  0  0  0  0  0  0  0  0  0
   20.5197   11.0131   -4.6354 H   0  0  0  0  0  0  0  0  0  0  0  0
   16.6963   11.1527   -4.5311 H   0  0  0  0  0  0  0  0  0  0  0  0
   17.6907   11.0123   -1.8329 H   0  0  0  0  0  0  0  0  0  0  0  0
   16.1118   10.5183   -2.5328 H   0  0  0  0  0  0  0  0  0  0  0  0
   17.4931    9.3698   -2.5328 H   0  0  0  0  0  0  0  0  0  0  0  0
   18.5604   12.7871   -3.2198 H   0  0  0  0  0  0  0  0  0  0  0  0
   19.2817   12.2210   -4.7644 H   0  0  0  0  0  0  0  0  0  0  0  0
   17.6742   13.0224   -4.7644 H   0  0  0  0  0  0  0  0  0  0  0  0
  8  5  1  0
  8  9  1  0
  9 14  1  0
  9 10  2  0
 10 11  1  0
 11 12  2  0
 12 13  1  0
 12 15  1  0
 13 14  2  0
  1  7  2  0
  1  2  1  0
  1  4  1  0
  2  3  2  0
  3  5  1  0
  4  6  1  0
  5  6  2  0
 15 16  1  0
 15 19  2  0
 16 17  1  0
 17 18  2  0
 18 19  1  0
 18 20  1  0
 20 22  1  0
 20 21  1  0
  3 23  1  0
  4 24  1  0
  6 25  1  0
  8 26  1  0
 11 27  1  0
 13 28  1  0
 14 29  1  0
 19 30  1  0
 20 31  1  6
 21 32  1  1
 21 33  1  0
 21 34  1  0
 22 35  1  1
 22 36  1  0
 22 37  1  0
M  END
>  <Pose ID>  (566)
103

>  <Score>  (566)
-5.202673435211182

>  <smiles>  (566)
CC(C)c1cc(-c2ccc(Nc3cnc(=O)[nH]c3)nc2)on1

$$$$

     RDKit          3D

 40 43  0  0  0  0  0  0  0  0999 V2000
   27.4680    7.6260  -10.0390 C   0  0  0  0  0  0  0  0  0  0  0  0
   28.4190    7.0230  -10.8490 C   0  0  0  0  0  0  0  0  0  0  0  0
   29.1490    7.7890  -11.7520 N   0  0  0  0  0  0  0  0  0  0  0  0
   28.9290    9.1560  -11.8420 C   0  0  0  0  0  0  0  0  0  0  0  0
   26.7950    6.6900   -9.1420 O   0  0  0  0  0  0  0  0  0  0  0  0
   27.9740    9.7610  -11.0290 C   0  0  0  0  0  0  0  0  0  0  0  0
   27.2470    8.9950  -10.1260 C   0  0  0  0  0  0  0  0  0  0  0  0
   29.4990   10.0950  -12.6230 N   0  0  0  0  0  0  0  0  0  0  0  0
   28.9270   11.3150  -12.3390 C   0  0  0  0  0  0  0  0  0  0  0  0
   28.0030   10.9380  -11.3410 C   0  0  0  0  0  0  0  0  0  0  0  0
   26.0210    7.0740   -8.0400 C   0  0  0  0  0  0  0  0  0  0  0  0
   25.1120    8.1010   -8.2340 N   0  0  0  0  0  0  0  0  0  0  0  0
   24.5190    8.3260   -7.0910 N   0  0  0  0  0  0  0  0  0  0  0  0
   24.9420    7.5060   -6.0520 C   0  0  0  0  0  0  0  0  0  0  0  0
   25.8780    6.7130   -6.7130 C   0  0  0  0  0  0  0  0  0  0  0  0
   23.5340    9.2810   -6.8640 C   0  0  0  0  0  0  0  0  0  0  0  0
   22.9710    9.4140   -5.6010 C   0  0  0  0  0  0  0  0  0  0  0  0
   23.3940    8.5930   -4.5610 C   0  0  0  0  0  0  0  0  0  0  0  0
   24.3800    7.6390   -4.7880 C   0  0  0  0  0  0  0  0  0  0  0  0
   22.0050   10.2620   -5.1360 N   0  0  0  0  0  0  0  0  0  0  0  0
   22.3770   11.4050   -4.2890 C   0  0  1  0  0  0  0  0  0  0  0  0
   20.6140    9.7960   -5.1500 C   0  0  1  0  0  0  0  0  0  0  0  0
   27.0910   11.9480  -10.6900 C   0  0  1  0  0  0  0  0  0  0  0  0
   28.5958    5.9397  -10.7773 H   0  0  0  0  0  0  0  0  0  0  0  0
   29.8538    7.3408  -12.3547 H   0  0  0  0  0  0  0  0  0  0  0  0
   26.4960    9.4727   -9.4796 H   0  0  0  0  0  0  0  0  0  0  0  0
   29.1327   12.3061  -12.7695 H   0  0  0  0  0  0  0  0  0  0  0  0
   26.4376    5.8955   -6.2350 H   0  0  0  0  0  0  0  0  0  0  0  0
   23.2002    9.9319   -7.6855 H   0  0  0  0  0  0  0  0  0  0  0  0
   22.9493    8.6982   -3.5604 H   0  0  0  0  0  0  0  0  0  0  0  0
   24.7154    6.9891   -3.9663 H   0  0  0  0  0  0  0  0  0  0  0  0
   22.2849   11.1220   -3.2300 H   0  0  0  0  0  0  0  0  0  0  0  0
   23.4163   11.6961   -4.5017 H   0  0  0  0  0  0  0  0  0  0  0  0
   21.7081   12.2520   -4.5017 H   0  0  0  0  0  0  0  0  0  0  0  0
   20.2570    9.6764   -4.1165 H   0  0  0  0  0  0  0  0  0  0  0  0
   19.9857   10.5327   -5.6720 H   0  0  0  0  0  0  0  0  0  0  0  0
   20.5563    8.8295   -5.6720 H   0  0  0  0  0  0  0  0  0  0  0  0
   27.1693   11.8613   -9.5962 H   0  0  0  0  0  0  0  0  0  0  0  0
   27.3860   12.9615  -10.9995 H   0  0  0  0  0  0  0  0  0  0  0  0
   26.0528   11.7577  -10.9995 H   0  0  0  0  0  0  0  0  0  0  0  0
  5  1  1  0
  5 11  1  0
  1  2  2  0
  1  7  1  0
  2  3  1  0
  3  4  1  0
  4  8  2  0
  4  6  1  0
  6 10  1  0
  6  7  2  0
  8  9  1  0
  9 10  2  0
 10 23  1  0
 11 12  2  0
 11 15  1  0
 12 13  1  0
 13 16  1  0
 13 14  1  0
 14 15  2  0
 14 19  1  0
 16 17  2  0
 17 20  1  0
 17 18  1  0
 18 19  2  0
 20 22  1  0
 20 21  1  0
  2 24  1  0
  3 25  1  0
  7 26  1  0
  9 27  1  0
 15 28  1  0
 16 29  1  0
 18 30  1  0
 19 31  1  0
 21 32  1  1
 21 33  1  0
 21 34  1  0
 22 35  1  1
 22 36  1  0
 22 37  1  0
 23 38  1  1
 23 39  1  0
 23 40  1  0
M  END
>  <Pose ID>  (567)
338

>  <Score>  (567)
-5.1945881843566895

>  <smiles>  (567)
Cc1cnc2[nH]cc(Oc3cc4ccc(N(C)C)cn4n3)cc1-2

$$$$

     RDKit          3D

 32 35  0  0  0  0  0  0  0  0999 V2000
   27.8000    7.7790  -10.2900 C   0  0  0  0  0  0  0  0  0  0  0  0
   28.7090    7.0870  -11.0800 C   0  0  0  0  0  0  0  0  0  0  0  0
   29.5330    7.7810  -11.9590 N   0  0  0  0  0  0  0  0  0  0  0  0
   29.4490    9.1650  -12.0470 C   0  0  0  0  0  0  0  0  0  0  0  0
   27.0150    6.9100   -9.4170 O   0  0  0  0  0  0  0  0  0  0  0  0
   28.5380    9.8570  -11.2540 C   0  0  0  0  0  0  0  0  0  0  0  0
   27.7160    9.1630  -10.3750 C   0  0  0  0  0  0  0  0  0  0  0  0
   30.1280   10.0450  -12.8090 N   0  0  0  0  0  0  0  0  0  0  0  0
   29.6720   11.3140  -12.5320 C   0  0  0  0  0  0  0  0  0  0  0  0
   28.6900   11.0270  -11.5590 C   0  0  0  0  0  0  0  0  0  0  0  0
   26.2560    7.3630   -8.3320 C   0  0  0  0  0  0  0  0  0  0  0  0
   25.4570    8.4750   -8.5410 N   0  0  0  0  0  0  0  0  0  0  0  0
   24.8600    8.7540   -7.4120 N   0  0  0  0  0  0  0  0  0  0  0  0
   25.1740    7.8930   -6.3680 C   0  0  0  0  0  0  0  0  0  0  0  0
   26.0450    7.0140   -7.0100 C   0  0  0  0  0  0  0  0  0  0  0  0
   23.9670    9.7990   -7.2050 C   0  0  0  0  0  0  0  0  0  0  0  0
   23.3890    9.9830   -5.9550 C   0  0  0  0  0  0  0  0  0  0  0  0
   23.7030    9.1210   -4.9110 C   0  0  0  0  0  0  0  0  0  0  0  0
   24.5960    8.0760   -5.1180 C   0  0  0  0  0  0  0  0  0  0  0  0
   22.4200   11.1180   -5.7320 C   0  0  1  0  0  0  0  0  0  0  0  0
   28.7769    5.9913  -11.0103 H   0  0  0  0  0  0  0  0  0  0  0  0
   30.2066    7.2683  -12.5457 H   0  0  0  0  0  0  0  0  0  0  0  0
   26.9982    9.7098   -9.7459 H   0  0  0  0  0  0  0  0  0  0  0  0
   29.9852   12.2814  -12.9515 H   0  0  0  0  0  0  0  0  0  0  0  0
   28.0889   11.8240  -11.0969 H   0  0  0  0  0  0  0  0  0  0  0  0
   26.5101    6.1446   -6.5224 H   0  0  0  0  0  0  0  0  0  0  0  0
   23.7178   10.4808   -8.0315 H   0  0  0  0  0  0  0  0  0  0  0  0
   23.2451    9.2656   -3.9214 H   0  0  0  0  0  0  0  0  0  0  0  0
   24.8451    7.3938   -4.2918 H   0  0  0  0  0  0  0  0  0  0  0  0
   22.2841   11.2772   -4.6521 H   0  0  0  0  0  0  0  0  0  0  0  0
   22.8178   12.0352   -6.1907 H   0  0  0  0  0  0  0  0  0  0  0  0
   21.4517   10.8689   -6.1907 H   0  0  0  0  0  0  0  0  0  0  0  0
  5  1  1  0
  5 11  1  0
  1  2  2  0
  1  7  1  0
  2  3  1  0
  3  4  1  0
  4  8  2  0
  4  6  1  0
  6 10  1  0
  6  7  2  0
  8  9  1  0
  9 10  2  0
 11 12  2  0
 11 15  1  0
 12 13  1  0
 13 16  1  0
 13 14  1  0
 14 15  2  0
 14 19  1  0
 16 17  2  0
 17 20  1  0
 17 18  1  0
 18 19  2  0
  2 21  1  0
  3 22  1  0
  7 23  1  0
  9 24  1  0
 10 25  1  0
 15 26  1  0
 16 27  1  0
 18 28  1  0
 19 29  1  0
 20 30  1  1
 20 31  1  0
 20 32  1  0
M  END
>  <Pose ID>  (568)
333

>  <Score>  (568)
-5.190099239349365

>  <smiles>  (568)
Cc1ccc2cc(Oc3c[nH]c4nccc-4c3)nn2c1

$$$$

     RDKit          3D

 37 40  0  0  0  0  0  0  0  0999 V2000
   27.8870    7.8210  -10.2340 C   0  0  0  0  0  0  0  0  0  0  0  0
   28.9070    7.1200  -10.8660 C   0  0  0  0  0  0  0  0  0  0  0  0
   29.7480    7.7730  -11.7580 N   0  0  0  0  0  0  0  0  0  0  0  0
   29.5700    9.1260  -12.0200 C   0  0  0  0  0  0  0  0  0  0  0  0
   27.1000    6.9950   -9.3230 O   0  0  0  0  0  0  0  0  0  0  0  0
   28.5460    9.8280  -11.3900 C   0  0  0  0  0  0  0  0  0  0  0  0
   27.7090    9.1740  -10.4960 C   0  0  0  0  0  0  0  0  0  0  0  0
   30.2430    9.9660  -12.8320 N   0  0  0  0  0  0  0  0  0  0  0  0
   29.6720   11.2160  -12.7480 C   0  0  0  0  0  0  0  0  0  0  0  0
   28.6360   10.9630  -11.8230 C   0  0  0  0  0  0  0  0  0  0  0  0
   26.2200    7.5070   -8.3600 C   0  0  0  0  0  0  0  0  0  0  0  0
   25.3640    8.5170   -8.7620 N   0  0  0  0  0  0  0  0  0  0  0  0
   24.6420    8.8770   -7.6920 N   0  0  0  0  0  0  0  0  0  0  0  0
   24.9720    8.1180   -6.5760 C   0  0  0  0  0  0  0  0  0  0  0  0
   25.9270    7.2970   -7.0240 C   0  0  0  0  0  0  0  0  0  0  0  0
   23.6540    9.8500   -7.6020 C   0  0  0  0  0  0  0  0  0  0  0  0
   22.9960   10.0650   -6.3970 N   0  0  0  0  0  0  0  0  0  0  0  0
   23.3270    9.3060   -5.2800 C   0  0  0  0  0  0  0  0  0  0  0  0
   24.3140    8.3320   -5.3690 C   0  0  0  0  0  0  0  0  0  0  0  0
   22.6120    9.5380   -3.9710 C   0  0  1  0  0  0  0  0  0  0  0  0
   21.7160   10.7930   -4.0080 C   0  0  1  0  0  0  0  0  0  0  0  0
   22.4940   12.0680   -3.6580 C   0  0  1  0  0  0  0  0  0  0  0  0
   29.0483    6.0487  -10.6600 H   0  0  0  0  0  0  0  0  0  0  0  0
   30.5045    7.2537  -12.2258 H   0  0  0  0  0  0  0  0  0  0  0  0
   26.9026    9.7285   -9.9936 H   0  0  0  0  0  0  0  0  0  0  0  0
   29.9464   12.1507  -13.2589 H   0  0  0  0  0  0  0  0  0  0  0  0
   27.9412   11.7553  -11.5074 H   0  0  0  0  0  0  0  0  0  0  0  0
   26.4242    6.5394   -6.4005 H   0  0  0  0  0  0  0  0  0  0  0  0
   23.3924   10.4507   -8.4856 H   0  0  0  0  0  0  0  0  0  0  0  0
   24.5749    7.7305   -4.4857 H   0  0  0  0  0  0  0  0  0  0  0  0
   21.9846    8.6618   -3.7504 H   0  0  0  0  0  0  0  0  0  0  0  0
   23.3748    9.6918   -3.1935 H   0  0  0  0  0  0  0  0  0  0  0  0
   21.2966   10.8997   -5.0193 H   0  0  0  0  0  0  0  0  0  0  0  0
   20.9216   10.6643   -3.2581 H   0  0  0  0  0  0  0  0  0  0  0  0
   22.5567   12.1708   -2.5646 H   0  0  0  0  0  0  0  0  0  0  0  0
   23.5083   12.0059   -4.0792 H   0  0  0  0  0  0  0  0  0  0  0  0
   21.9749   12.9416   -4.0792 H   0  0  0  0  0  0  0  0  0  0  0  0
 11  5  1  0
 11 12  2  0
 11 15  1  0
 12 13  1  0
 13 16  1  0
 13 14  1  0
 14 15  2  0
 14 19  1  0
 16 17  2  0
 17 18  1  0
 18 19  2  0
 18 20  1  0
  5  1  1  0
  1  2  2  0
  1  7  1  0
  2  3  1  0
  3  4  1  0
  4  8  2  0
  4  6  1  0
  6 10  1  0
  6  7  2  0
  8  9  1  0
  9 10  2  0
 20 21  1  0
 21 22  1  0
  2 23  1  0
  3 24  1  0
  7 25  1  0
  9 26  1  0
 10 27  1  0
 15 28  1  0
 16 29  1  0
 19 30  1  0
 20 31  1  1
 20 32  1  0
 21 33  1  6
 21 34  1  0
 22 35  1  1
 22 36  1  0
 22 37  1  0
M  END
>  <Pose ID>  (569)
296

>  <Score>  (569)
-5.186792373657227

>  <smiles>  (569)
CCCc1cc2cc(Oc3c[nH]c4nccc-4c3)nn2cn1

$$$$

     RDKit          3D

 27 29  0  0  0  0  0  0  0  0999 V2000
   27.1000    9.5770  -10.1660 C   0  0  0  0  0  0  0  0  0  0  0  0
   27.8020    8.4870  -10.6600 C   0  0  0  0  0  0  0  0  0  0  0  0
   28.7830    8.6700  -11.8160 N   0  0  0  0  0  0  0  0  0  0  0  0
   26.1940    9.4020   -9.1040 C   0  0  0  0  0  0  0  0  0  0  0  0
   26.1270    8.0850   -8.6590 C   0  0  0  0  0  0  0  0  0  0  0  0
   26.7220    7.0610   -9.0520 C   0  0  0  0  0  0  0  0  0  0  0  0
   27.6150    7.2280  -10.1030 C   0  0  0  0  0  0  0  0  0  0  0  0
   25.4180   10.3790   -8.4920 N   0  0  0  0  0  0  0  0  0  0  0  0
   24.5760   10.0440   -7.4390 C   0  0  0  0  0  0  0  0  0  0  0  0
   24.5080    8.7270   -6.9960 N   0  0  0  0  0  0  0  0  0  0  0  0
   25.2750    7.7440   -7.6000 C   0  0  0  0  0  0  0  0  0  0  0  0
   28.9570    9.9160  -12.3130 C   0  0  0  0  0  0  0  0  0  0  0  0
   30.2730   10.3170  -12.5020 C   0  0  0  0  0  0  0  0  0  0  0  0
   30.5490   11.5840  -13.0020 C   0  0  0  0  0  0  0  0  0  0  0  0
   29.5070   12.4510  -13.3110 C   0  0  0  0  0  0  0  0  0  0  0  0
   28.1890   12.0490  -13.1210 C   0  0  0  0  0  0  0  0  0  0  0  0
   27.9150   10.7820  -12.6230 N   0  0  0  0  0  0  0  0  0  0  0  0
   27.2513   10.5749  -10.6033 H   0  0  0  0  0  0  0  0  0  0  0  0
   29.2975    7.8675  -12.2061 H   0  0  0  0  0  0  0  0  0  0  0  0
   26.5485    6.0777   -8.5905 H   0  0  0  0  0  0  0  0  0  0  0  0
   28.1733    6.3645  -10.4937 H   0  0  0  0  0  0  0  0  0  0  0  0
   23.9635   10.8195   -6.9559 H   0  0  0  0  0  0  0  0  0  0  0  0
   25.2156    6.7027   -7.2506 H   0  0  0  0  0  0  0  0  0  0  0  0
   31.0973    9.6315  -12.2559 H   0  0  0  0  0  0  0  0  0  0  0  0
   31.5915   11.9007  -13.1532 H   0  0  0  0  0  0  0  0  0  0  0  0
   29.7248   13.4544  -13.7056 H   0  0  0  0  0  0  0  0  0  0  0  0
   27.3641   12.7345  -13.3651 H   0  0  0  0  0  0  0  0  0  0  0  0
  1  2  2  0
  1  4  1  0
  2  3  1  0
  2  7  1  0
  4  5  2  0
  4  8  1  0
  5  6  1  0
  5 11  1  0
  6  7  2  0
  8  9  2  0
  9 10  1  0
 10 11  2  0
  3 12  1  0
 12 17  1  0
 12 13  2  0
 13 14  1  0
 14 15  2  0
 15 16  1  0
 16 17  2  0
  1 18  1  0
  3 19  1  0
  6 20  1  0
  7 21  1  0
  9 22  1  0
 11 23  1  0
 13 24  1  0
 14 25  1  0
 15 26  1  0
 16 27  1  0
M  END
>  <Pose ID>  (570)
1

>  <Score>  (570)
-5.183243274688721

>  <smiles>  (570)
c1ccc(Nc2ccc3cncnc3c2)nc1

$$$$

     RDKit          3D

 36 39  0  0  0  0  0  0  0  0999 V2000
   27.6610    7.7660  -10.2080 C   0  0  0  0  0  0  0  0  0  0  0  0
   28.4440    7.0670  -11.1160 C   0  0  0  0  0  0  0  0  0  0  0  0
   29.2590    7.7560  -12.0080 N   0  0  0  0  0  0  0  0  0  0  0  0
   29.2900    9.1450  -11.9900 C   0  0  0  0  0  0  0  0  0  0  0  0
   26.8710    6.8980   -9.3370 O   0  0  0  0  0  0  0  0  0  0  0  0
   28.5050    9.8470  -11.0780 C   0  0  0  0  0  0  0  0  0  0  0  0
   27.6920    9.1550  -10.1870 C   0  0  0  0  0  0  0  0  0  0  0  0
   29.9840   10.0230  -12.7380 N   0  0  0  0  0  0  0  0  0  0  0  0
   29.6620   11.3000  -12.3360 C   0  0  0  0  0  0  0  0  0  0  0  0
   28.7340   11.0210  -11.3100 C   0  0  0  0  0  0  0  0  0  0  0  0
   26.2400    7.3270   -8.1660 C   0  0  0  0  0  0  0  0  0  0  0  0
   25.5280    8.5140   -8.2310 N   0  0  0  0  0  0  0  0  0  0  0  0
   25.0130    8.7700   -6.9720 N   0  0  0  0  0  0  0  0  0  0  0  0
   25.3760    7.7740   -6.1540 C   0  0  0  0  0  0  0  0  0  0  0  0
   26.0980    6.8950   -6.8590 C   0  0  0  0  0  0  0  0  0  0  0  0
   24.2850    9.8590   -6.6630 C   0  0  0  0  0  0  0  0  0  0  0  0
   23.2000    9.7410   -5.8020 C   0  0  0  0  0  0  0  0  0  0  0  0
   24.7920   11.1150   -6.9750 C   0  0  0  0  0  0  0  0  0  0  0  0
   24.2140   12.2530   -6.4250 C   0  0  0  0  0  0  0  0  0  0  0  0
   22.6240   10.8790   -5.2520 C   0  0  0  0  0  0  0  0  0  0  0  0
   23.1330   12.1390   -5.5610 N   0  0  0  0  0  0  0  0  0  0  0  0
   21.6510   10.7740   -4.4830 O   0  0  0  0  0  0  0  0  0  0  0  0
   22.3530   13.0850   -4.8350 C   0  0  1  0  0  0  0  0  0  0  0  0
   28.4200    5.9674  -11.1302 H   0  0  0  0  0  0  0  0  0  0  0  0
   29.8395    7.2366  -12.6819 H   0  0  0  0  0  0  0  0  0  0  0  0
   27.0729    9.7077   -9.4650 H   0  0  0  0  0  0  0  0  0  0  0  0
   30.0265   12.2680  -12.7103 H   0  0  0  0  0  0  0  0  0  0  0  0
   28.2403   11.8261  -10.7459 H   0  0  0  0  0  0  0  0  0  0  0  0
   25.1241    7.6923   -5.0863 H   0  0  0  0  0  0  0  0  0  0  0  0
   26.5188    5.9617   -6.4567 H   0  0  0  0  0  0  0  0  0  0  0  0
   22.7979    8.7470   -5.5564 H   0  0  0  0  0  0  0  0  0  0  0  0
   25.6502   11.2083   -7.6568 H   0  0  0  0  0  0  0  0  0  0  0  0
   24.6140   13.2468   -6.6748 H   0  0  0  0  0  0  0  0  0  0  0  0
   22.4884   12.9207   -3.7558 H   0  0  0  0  0  0  0  0  0  0  0  0
   22.6772   14.1036   -5.0944 H   0  0  0  0  0  0  0  0  0  0  0  0
   21.2912   12.9609   -5.0944 H   0  0  0  0  0  0  0  0  0  0  0  0
 11  5  1  0
 11 12  2  0
 11 15  1  0
 12 13  1  0
 13 16  1  0
 13 14  1  0
 14 15  2  0
 16 18  1  0
 16 17  2  0
 17 20  1  0
 18 19  2  0
 19 21  1  0
 20 21  1  0
 20 22  2  0
 21 23  1  0
  5  1  1  0
  1  2  2  0
  1  7  1  0
  2  3  1  0
  3  4  1  0
  4  8  2  0
  4  6  1  0
  6 10  1  0
  6  7  2  0
  8  9  1  0
  9 10  2  0
  2 24  1  0
  3 25  1  0
  7 26  1  0
  9 27  1  0
 10 28  1  0
 14 29  1  0
 15 30  1  0
 17 31  1  0
 18 32  1  0
 19 33  1  0
 23 34  1  1
 23 35  1  0
 23 36  1  0
M  END
>  <Pose ID>  (571)
461

>  <Score>  (571)
-5.177673816680908

>  <smiles>  (571)
Cn1ccc(-n2ccc(Oc3c[nH]c4nccc-4c3)n2)cc1=O

$$$$

     RDKit          3D

 22 24  0  0  0  0  0  0  0  0999 V2000
   27.5650    7.0310   -9.6160 C   0  0  0  0  0  0  0  0  0  0  0  0
   27.9190    8.1430  -10.3690 N   0  0  0  0  0  0  0  0  0  0  0  0
   26.3180    6.9780   -8.9990 N   0  0  0  0  0  0  0  0  0  0  0  0
   25.4320    8.0350   -9.1330 C   0  0  0  0  0  0  0  0  0  0  0  0
   27.0280    9.2040  -10.5050 C   0  0  0  0  0  0  0  0  0  0  0  0
   25.8340    9.1840   -9.9290 C   0  0  0  0  0  0  0  0  0  0  0  0
   27.5650   10.1760  -11.2500 C   0  0  0  0  0  0  0  0  0  0  0  0
   28.8320   10.0020  -11.7940 C   0  0  0  0  0  0  0  0  0  0  0  0
   26.8360   11.3240  -11.5380 N   0  0  0  0  0  0  0  0  0  0  0  0
   27.3740   12.2970  -12.3700 C   0  0  0  0  0  0  0  0  0  0  0  0
   28.6420   12.1230  -12.9150 N   0  0  0  0  0  0  0  0  0  0  0  0
   29.2020    8.6870  -11.2110 C   0  0  0  0  0  0  0  0  0  0  0  0
   29.3660   10.9780  -12.6250 C   0  0  0  0  0  0  0  0  0  0  0  0
   30.7410   10.7910  -13.2160 C   0  0  1  0  0  0  0  0  0  0  0  0
   28.2691    6.1929   -9.5072 H   0  0  0  0  0  0  0  0  0  0  0  0
   24.4454    8.0057   -8.6475 H   0  0  0  0  0  0  0  0  0  0  0  0
   25.1484   10.0352  -10.0529 H   0  0  0  0  0  0  0  0  0  0  0  0
   26.7974   13.2055  -12.5981 H   0  0  0  0  0  0  0  0  0  0  0  0
   30.1679    8.1736  -11.3271 H   0  0  0  0  0  0  0  0  0  0  0  0
   31.4779   10.6908  -12.4055 H   0  0  0  0  0  0  0  0  0  0  0  0
   30.7529    9.8830  -13.8368 H   0  0  0  0  0  0  0  0  0  0  0  0
   30.9950   11.6629  -13.8368 H   0  0  0  0  0  0  0  0  0  0  0  0
  1  2  1  0
  1  3  2  0
  2 12  1  0
  2  5  1  0
  3  4  1  0
  4  6  2  0
  5  7  2  0
  5  6  1  0
  7  8  1  0
  7  9  1  0
  8 13  1  0
  8 12  2  0
  9 10  2  0
 10 11  1  0
 11 13  2  0
 13 14  1  0
  1 15  1  0
  4 16  1  0
  6 17  1  0
 10 18  1  0
 12 19  1  0
 14 20  1  1
 14 21  1  0
 14 22  1  0
M  END
>  <Pose ID>  (572)
10

>  <Score>  (572)
-5.1760406494140625

>  <smiles>  (572)
Cc1ncnc2c1cn1cnccc21

$$$$

     RDKit          3D

 37 39  0  0  0  0  0  0  0  0999 V2000
   27.7810    7.9690   -9.8220 C   0  0  0  0  0  0  0  0  0  0  0  0
   26.9890    6.8340   -9.7640 N   0  0  0  0  0  0  0  0  0  0  0  0
   26.2580    6.5490   -8.6150 C   0  0  0  0  0  0  0  0  0  0  0  0
   27.8450    8.8310   -8.7310 N   0  0  0  0  0  0  0  0  0  0  0  0
   26.3250    7.4090   -7.5240 C   0  0  0  0  0  0  0  0  0  0  0  0
   27.0380    8.5200   -7.5720 C   0  0  0  0  0  0  0  0  0  0  0  0
   28.4350    8.2240  -10.8500 O   0  0  0  0  0  0  0  0  0  0  0  0
   25.6390    7.0960   -6.3750 N   0  0  0  0  0  0  0  0  0  0  0  0
   24.3240    7.5160   -6.0720 C   0  0  0  0  0  0  0  0  0  0  0  0
   23.2760    6.6800   -5.7040 N   0  0  0  0  0  0  0  0  0  0  0  0
   22.0250    7.2140   -5.4260 C   0  0  0  0  0  0  0  0  0  0  0  0
   21.8210    8.5880   -5.5180 C   0  0  0  0  0  0  0  0  0  0  0  0
   22.8680    9.4230   -5.8850 C   0  0  0  0  0  0  0  0  0  0  0  0
   24.1260    8.8860   -6.1370 C   0  0  0  0  0  0  0  0  0  0  0  0
   20.4850    8.8760   -5.1890 C   0  0  0  0  0  0  0  0  0  0  0  0
   19.4470    8.0090   -5.2930 O   0  0  0  0  0  0  0  0  0  0  0  0
   18.3140    8.6520   -4.8820 N   0  0  0  0  0  0  0  0  0  0  0  0
   18.6580    9.9040   -4.5170 C   0  0  0  0  0  0  0  0  0  0  0  0
   20.0070   10.0680   -4.7420 C   0  0  0  0  0  0  0  0  0  0  0  0
   17.7240   10.9470   -3.9560 C   0  0  1  0  0  0  0  0  0  0  0  0
   17.4510   10.6630   -2.4810 C   0  0  1  0  0  0  0  0  0  0  0  0
   16.5330   11.6700   -1.8490 C   0  0  1  0  0  0  0  0  0  0  0  0
   25.6297    5.6472   -8.5696 H   0  0  0  0  0  0  0  0  0  0  0  0
   28.4489    9.6652   -8.7486 H   0  0  0  0  0  0  0  0  0  0  0  0
   27.0176    9.2164   -6.7208 H   0  0  0  0  0  0  0  0  0  0  0  0
   26.1214    6.5089   -5.6797 H   0  0  0  0  0  0  0  0  0  0  0  0
   21.1963    6.5524   -5.1335 H   0  0  0  0  0  0  0  0  0  0  0  0
   22.7029   10.5067   -5.9762 H   0  0  0  0  0  0  0  0  0  0  0  0
   24.9658    9.5504   -6.3885 H   0  0  0  0  0  0  0  0  0  0  0  0
   20.5880   10.9894   -4.5890 H   0  0  0  0  0  0  0  0  0  0  0  0
   18.1848   11.9408   -4.0566 H   0  0  0  0  0  0  0  0  0  0  0  0
   16.7749   10.9184   -4.5113 H   0  0  0  0  0  0  0  0  0  0  0  0
   16.9914    9.6673   -2.3951 H   0  0  0  0  0  0  0  0  0  0  0  0
   18.4138   10.7182   -1.9519 H   0  0  0  0  0  0  0  0  0  0  0  0
   16.6029   11.5933   -0.7539 H   0  0  0  0  0  0  0  0  0  0  0  0
   16.8257   12.6821   -2.1651 H   0  0  0  0  0  0  0  0  0  0  0  0
   15.4982   11.4720   -2.1651 H   0  0  0  0  0  0  0  0  0  0  0  0
  8  5  1  0
  8  9  1  0
  9 14  1  0
  9 10  2  0
 10 11  1  0
 11 12  2  0
 12 13  1  0
 12 15  1  0
 13 14  2  0
  1  7  2  0
  1  2  1  0
  1  4  1  0
  2  3  2  0
  3  5  1  0
  4  6  1  0
  5  6  2  0
 15 16  1  0
 15 19  2  0
 16 17  1  0
 17 18  2  0
 18 19  1  0
 18 20  1  0
 20 21  1  0
 21 22  1  0
  3 23  1  0
  4 24  1  0
  6 25  1  0
  8 26  1  0
 11 27  1  0
 13 28  1  0
 14 29  1  0
 19 30  1  0
 20 31  1  1
 20 32  1  0
 21 33  1  6
 21 34  1  0
 22 35  1  1
 22 36  1  0
 22 37  1  0
M  END
>  <Pose ID>  (573)
104

>  <Score>  (573)
-5.1746954917907715

>  <smiles>  (573)
CCCc1cc(-c2ccc(Nc3cnc(=O)[nH]c3)nc2)on1

$$$$

     RDKit          3D

 37 39  0  0  0  0  0  0  0  0999 V2000
   27.8150    7.9200   -9.8610 C   0  0  0  0  0  0  0  0  0  0  0  0
   26.9480    6.8390   -9.8270 N   0  0  0  0  0  0  0  0  0  0  0  0
   26.2070    6.5740   -8.6800 C   0  0  0  0  0  0  0  0  0  0  0  0
   27.9450    8.7430   -8.7470 N   0  0  0  0  0  0  0  0  0  0  0  0
   26.3390    7.3970   -7.5660 C   0  0  0  0  0  0  0  0  0  0  0  0
   27.1230    8.4590   -7.5910 C   0  0  0  0  0  0  0  0  0  0  0  0
   28.4790    8.1560  -10.8870 O   0  0  0  0  0  0  0  0  0  0  0  0
   25.6390    7.1010   -6.4210 N   0  0  0  0  0  0  0  0  0  0  0  0
   24.3580    7.6000   -6.1000 C   0  0  0  0  0  0  0  0  0  0  0  0
   23.2590    6.8270   -5.7440 N   0  0  0  0  0  0  0  0  0  0  0  0
   22.0460    7.4390   -5.4410 C   0  0  0  0  0  0  0  0  0  0  0  0
   21.9370    8.8230   -5.4950 C   0  0  0  0  0  0  0  0  0  0  0  0
   23.0360    9.5950   -5.8490 C   0  0  0  0  0  0  0  0  0  0  0  0
   24.2550    8.9810   -6.1240 C   0  0  0  0  0  0  0  0  0  0  0  0
   20.6250    9.1940   -5.1490 C   0  0  0  0  0  0  0  0  0  0  0  0
   19.5300    8.4010   -5.2680 O   0  0  0  0  0  0  0  0  0  0  0  0
   20.3800   10.2710   -4.3520 N   0  0  0  0  0  0  0  0  0  0  0  0
   18.5630    9.0540   -4.4800 C   0  0  0  0  0  0  0  0  0  0  0  0
   19.0860   10.2110   -3.9260 C   0  0  0  0  0  0  0  0  0  0  0  0
   18.3730   11.1970   -3.0350 C   0  0  1  0  0  0  0  0  0  0  0  0
   17.3520   10.4360   -2.1920 C   0  0  1  0  0  0  0  0  0  0  0  0
   19.2200   12.2810   -2.4580 C   0  0  1  0  0  0  0  0  0  0  0  0
   25.5187    5.7163   -8.6538 H   0  0  0  0  0  0  0  0  0  0  0  0
   28.6074    9.5318   -8.7453 H   0  0  0  0  0  0  0  0  0  0  0  0
   27.1514    9.1350   -6.7237 H   0  0  0  0  0  0  0  0  0  0  0  0
   26.0839    6.4651   -5.7438 H   0  0  0  0  0  0  0  0  0  0  0  0
   21.1756    6.8281   -5.1594 H   0  0  0  0  0  0  0  0  0  0  0  0
   22.9435   10.6893   -5.9120 H   0  0  0  0  0  0  0  0  0  0  0  0
   25.1375    9.5936   -6.3607 H   0  0  0  0  0  0  0  0  0  0  0  0
   17.5347    8.6952   -4.3257 H   0  0  0  0  0  0  0  0  0  0  0  0
   17.7565   11.9021   -3.6118 H   0  0  0  0  0  0  0  0  0  0  0  0
   17.5659   10.5954   -1.1248 H   0  0  0  0  0  0  0  0  0  0  0  0
   16.3406   10.8023   -2.4220 H   0  0  0  0  0  0  0  0  0  0  0  0
   17.4141    9.3621   -2.4220 H   0  0  0  0  0  0  0  0  0  0  0  0
   19.1812   12.2314   -1.3598 H   0  0  0  0  0  0  0  0  0  0  0  0
   20.2594   12.1525   -2.7944 H   0  0  0  0  0  0  0  0  0  0  0  0
   18.8440   13.2585   -2.7944 H   0  0  0  0  0  0  0  0  0  0  0  0
  8  5  1  0
  8  9  1  0
  9 14  1  0
  9 10  2  0
 10 11  1  0
 11 12  2  0
 12 13  1  0
 12 15  1  0
 13 14  2  0
  1  7  2  0
  1  2  1  0
  1  4  1  0
  2  3  2  0
  3  5  1  0
  4  6  1  0
  5  6  2  0
 15 16  1  0
 15 17  2  0
 16 18  1  0
 17 19  1  0
 18 19  2  0
 19 20  1  0
 20 22  1  0
 20 21  1  0
  3 23  1  0
  4 24  1  0
  6 25  1  0
  8 26  1  0
 11 27  1  0
 13 28  1  0
 14 29  1  0
 18 30  1  0
 20 31  1  6
 21 32  1  1
 21 33  1  0
 21 34  1  0
 22 35  1  1
 22 36  1  0
 22 37  1  0
M  END
>  <Pose ID>  (574)
108

>  <Score>  (574)
-5.174062728881836

>  <smiles>  (574)
CC(C)c1coc(-c2ccc(Nc3cnc(=O)[nH]c3)nc2)n1

$$$$

     RDKit          3D

 27 28  0  0  0  0  0  0  0  0999 V2000
   28.1470    7.8800  -10.2380 C   0  0  0  0  0  0  0  0  0  0  0  0
   27.3090    6.8090   -9.9640 N   0  0  0  0  0  0  0  0  0  0  0  0
   26.5830    6.7730   -8.7810 C   0  0  0  0  0  0  0  0  0  0  0  0
   28.2560    8.9260   -9.3270 N   0  0  0  0  0  0  0  0  0  0  0  0
   26.6930    7.8210   -7.8690 C   0  0  0  0  0  0  0  0  0  0  0  0
   27.4480    8.8750   -8.1280 C   0  0  0  0  0  0  0  0  0  0  0  0
   28.7990    7.9070  -11.2970 O   0  0  0  0  0  0  0  0  0  0  0  0
   26.0050    7.7560   -6.6820 N   0  0  0  0  0  0  0  0  0  0  0  0
   24.5380    7.7940   -6.5180 C   0  0  2  0  0  0  0  0  0  0  0  0
   24.1810    9.2250   -6.2070 C   0  0  1  0  0  0  0  0  0  0  0  0
   22.7380    9.3740   -5.7760 C   0  0  1  0  0  0  0  0  0  0  0  0
   22.4420    8.4790   -4.6910 O   0  0  0  0  0  0  0  0  0  0  0  0
   22.5420    7.1210   -5.1600 C   0  0  1  0  0  0  0  0  0  0  0  0
   23.9870    6.8300   -5.4850 C   0  0  1  0  0  0  0  0  0  0  0  0
   25.9231    5.9200   -8.5643 H   0  0  0  0  0  0  0  0  0  0  0  0
   28.8945    9.7151   -9.5015 H   0  0  0  0  0  0  0  0  0  0  0  0
   27.4619    9.7211   -7.4252 H   0  0  0  0  0  0  0  0  0  0  0  0
   26.5669    7.6727   -5.8228 H   0  0  0  0  0  0  0  0  0  0  0  0
   24.0661    7.4484   -7.4496 H   0  0  0  0  0  0  0  0  0  0  0  0
   24.8317    9.5841   -5.3961 H   0  0  0  0  0  0  0  0  0  0  0  0
   24.3218    9.8150   -7.1246 H   0  0  0  0  0  0  0  0  0  0  0  0
   22.5629   10.4096   -5.4491 H   0  0  0  0  0  0  0  0  0  0  0  0
   22.0853    9.1296   -6.6271 H   0  0  0  0  0  0  0  0  0  0  0  0
   22.1919    6.4318   -4.3774 H   0  0  0  0  0  0  0  0  0  0  0  0
   21.9201    6.9861   -6.0572 H   0  0  0  0  0  0  0  0  0  0  0  0
   24.0641    5.8053   -5.8776 H   0  0  0  0  0  0  0  0  0  0  0  0
   24.5746    6.9456   -4.5623 H   0  0  0  0  0  0  0  0  0  0  0  0
  1  7  2  0
  1  2  1  0
  1  4  1  0
  2  3  2  0
  3  5  1  0
  4  6  1  0
  5  6  2  0
  5  8  1  0
  8  9  1  0
  9 10  1  0
  9 14  1  0
 10 11  1  0
 11 12  1  0
 12 13  1  0
 13 14  1  0
  3 15  1  0
  4 16  1  0
  6 17  1  0
  8 18  1  0
  9 19  1  6
 10 20  1  1
 10 21  1  0
 11 22  1  1
 11 23  1  0
 13 24  1  1
 13 25  1  0
 14 26  1  6
 14 27  1  0
M  END
>  <Pose ID>  (575)
100

>  <Score>  (575)
-5.170891284942627

>  <smiles>  (575)
O=c1ncc(NC2CCOCC2)c[nH]1

$$$$

     RDKit          3D

 19 20  0  0  0  0  0  0  0  0999 V2000
   27.8290    9.9970  -11.2950 C   0  0  0  0  0  0  0  0  0  0  0  0
   28.7870    9.0110  -11.5010 C   0  0  0  0  0  0  0  0  0  0  0  0
   28.6270    7.7070  -10.9920 N   0  0  0  0  0  0  0  0  0  0  0  0
   26.6480    9.6310  -10.6750 N   0  0  0  0  0  0  0  0  0  0  0  0
   26.4470    8.3420  -10.1930 C   0  0  0  0  0  0  0  0  0  0  0  0
   27.4370    7.3810  -10.3520 C   0  0  0  0  0  0  0  0  0  0  0  0
   27.2600    6.2270   -9.9200 O   0  0  0  0  0  0  0  0  0  0  0  0
   29.9550    9.3100  -12.1920 N   0  0  0  0  0  0  0  0  0  0  0  0
   30.1640   10.5940  -12.6800 C   0  0  0  0  0  0  0  0  0  0  0  0
   29.2060   11.5800  -12.4740 C   0  0  0  0  0  0  0  0  0  0  0  0
   28.0360   11.2720  -11.7710 C   0  0  0  0  0  0  0  0  0  0  0  0
   31.4310   10.9190  -13.4320 C   0  0  1  0  0  0  0  0  0  0  0  0
   29.3775    7.0087  -11.0922 H   0  0  0  0  0  0  0  0  0  0  0  0
   25.5052    8.0840   -9.6865 H   0  0  0  0  0  0  0  0  0  0  0  0
   29.3668   12.5968  -12.8615 H   0  0  0  0  0  0  0  0  0  0  0  0
   27.2791   12.0513  -11.5981 H   0  0  0  0  0  0  0  0  0  0  0  0
   32.2396   11.1264  -12.7157 H   0  0  0  0  0  0  0  0  0  0  0  0
   31.7117   10.0638  -14.0643 H   0  0  0  0  0  0  0  0  0  0  0  0
   31.2654   11.8037  -14.0643 H   0  0  0  0  0  0  0  0  0  0  0  0
  1 11  1  0
  1  2  2  0
  1  4  1  0
  2  8  1  0
  2  3  1  0
  3  6  1  0
  4  5  2  0
  5  6  1  0
  6  7  2  0
  8  9  2  0
  9 12  1  0
  9 10  1  0
 10 11  2  0
  3 13  1  0
  5 14  1  0
 10 15  1  0
 11 16  1  0
 12 17  1  1
 12 18  1  0
 12 19  1  0
M  END
>  <Pose ID>  (576)
142

>  <Score>  (576)
-5.166922092437744

>  <smiles>  (576)
Cc1ccc2ncc(=O)[nH]c2n1

$$$$

     RDKit          3D

 32 35  0  0  0  0  0  0  0  0999 V2000
   27.8520    7.8290  -10.2500 C   0  0  0  0  0  0  0  0  0  0  0  0
   28.8210    7.1180  -10.9460 C   0  0  0  0  0  0  0  0  0  0  0  0
   29.6550    7.7780  -11.8430 N   0  0  0  0  0  0  0  0  0  0  0  0
   29.5190    9.1470  -12.0410 C   0  0  0  0  0  0  0  0  0  0  0  0
   27.0650    6.9950   -9.3450 O   0  0  0  0  0  0  0  0  0  0  0  0
   28.5480    9.8570  -11.3430 C   0  0  0  0  0  0  0  0  0  0  0  0
   27.7160    9.1970  -10.4460 C   0  0  0  0  0  0  0  0  0  0  0  0
   30.1960    9.9950  -12.8410 N   0  0  0  0  0  0  0  0  0  0  0  0
   29.6770   11.2610  -12.6830 C   0  0  0  0  0  0  0  0  0  0  0  0
   28.6660   11.0060  -11.7310 C   0  0  0  0  0  0  0  0  0  0  0  0
   26.2420    7.4970   -8.3300 C   0  0  0  0  0  0  0  0  0  0  0  0
   25.4090    8.5540   -8.6580 N   0  0  0  0  0  0  0  0  0  0  0  0
   24.7520    8.8920   -7.5790 N   0  0  0  0  0  0  0  0  0  0  0  0
   25.0540    8.1270   -6.4590 C   0  0  0  0  0  0  0  0  0  0  0  0
   25.9870    7.2400   -6.9940 C   0  0  0  0  0  0  0  0  0  0  0  0
   23.8090    9.9100   -7.4910 C   0  0  0  0  0  0  0  0  0  0  0  0
   23.1700   10.1630   -6.2840 C   0  0  0  0  0  0  0  0  0  0  0  0
   23.4720    9.3980   -5.1630 C   0  0  0  0  0  0  0  0  0  0  0  0
   24.4150    8.3790   -5.2520 C   0  0  0  0  0  0  0  0  0  0  0  0
   22.7780    9.6730   -3.8520 C   0  0  1  0  0  0  0  0  0  0  0  0
   28.9289    6.0347  -10.7883 H   0  0  0  0  0  0  0  0  0  0  0  0
   30.3735    7.2519  -12.3605 H   0  0  0  0  0  0  0  0  0  0  0  0
   26.9498    9.7585   -9.8914 H   0  0  0  0  0  0  0  0  0  0  0  0
   29.9686   12.2063  -13.1640 H   0  0  0  0  0  0  0  0  0  0  0  0
   28.0140   11.8088  -11.3563 H   0  0  0  0  0  0  0  0  0  0  0  0
   26.4644    6.4310   -6.4217 H   0  0  0  0  0  0  0  0  0  0  0  0
   23.5690   10.5152   -8.3776 H   0  0  0  0  0  0  0  0  0  0  0  0
   22.4246   10.9690   -6.2150 H   0  0  0  0  0  0  0  0  0  0  0  0
   24.6546    7.7727   -4.3660 H   0  0  0  0  0  0  0  0  0  0  0  0
   23.4472    9.4078   -3.0202 H   0  0  0  0  0  0  0  0  0  0  0  0
   22.5213   10.7408   -3.7900 H   0  0  0  0  0  0  0  0  0  0  0  0
   21.8595    9.0709   -3.7900 H   0  0  0  0  0  0  0  0  0  0  0  0
  5  1  1  0
  5 11  1  0
  1  2  2  0
  1  7  1  0
  2  3  1  0
  3  4  1  0
  4  8  2  0
  4  6  1  0
  6 10  1  0
  6  7  2  0
  8  9  1  0
  9 10  2  0
 11 12  2  0
 11 15  1  0
 12 13  1  0
 13 16  1  0
 13 14  1  0
 14 15  2  0
 14 19  1  0
 16 17  2  0
 17 18  1  0
 18 19  2  0
 18 20  1  0
  2 21  1  0
  3 22  1  0
  7 23  1  0
  9 24  1  0
 10 25  1  0
 15 26  1  0
 16 27  1  0
 17 28  1  0
 19 29  1  0
 20 30  1  1
 20 31  1  0
 20 32  1  0
M  END
>  <Pose ID>  (577)
328

>  <Score>  (577)
-5.162683010101318

>  <smiles>  (577)
Cc1ccn2nc(Oc3c[nH]c4nccc-4c3)cc2c1

$$$$

     RDKit          3D

 27 29  0  0  0  0  0  0  0  0999 V2000
   27.2780    7.8960  -10.1900 C   0  0  0  0  0  0  0  0  0  0  0  0
   28.3870    7.1450  -10.5490 C   0  0  0  0  0  0  0  0  0  0  0  0
   29.3710    7.7020  -11.3550 N   0  0  0  0  0  0  0  0  0  0  0  0
   26.4770    7.1550   -9.4080 N   0  0  0  0  0  0  0  0  0  0  0  0
   29.2470    9.0130  -11.8010 C   0  0  0  0  0  0  0  0  0  0  0  0
   28.1360    9.7640  -11.4400 C   0  0  0  0  0  0  0  0  0  0  0  0
   27.1510    9.2090  -10.6350 C   0  0  0  0  0  0  0  0  0  0  0  0
   30.0540    9.7590  -12.5740 N   0  0  0  0  0  0  0  0  0  0  0  0
   29.4860   11.0030  -12.7330 C   0  0  0  0  0  0  0  0  0  0  0  0
   28.3030   10.8430  -11.9810 C   0  0  0  0  0  0  0  0  0  0  0  0
   25.8920    7.6460   -8.2020 C   0  0  0  0  0  0  0  0  0  0  0  0
   25.2520    6.7420   -7.3620 N   0  0  0  0  0  0  0  0  0  0  0  0
   24.5680    7.1970   -6.2410 C   0  0  0  0  0  0  0  0  0  0  0  0
   24.5240    8.5580   -5.9600 C   0  0  0  0  0  0  0  0  0  0  0  0
   25.1640    9.4630   -6.8000 C   0  0  0  0  0  0  0  0  0  0  0  0
   25.8720    9.0010   -7.9050 C   0  0  0  0  0  0  0  0  0  0  0  0
   23.9960    6.3870   -5.4900 O   0  0  0  0  0  0  0  0  0  0  0  0
   28.4872    6.1082  -10.1954 H   0  0  0  0  0  0  0  0  0  0  0  0
   30.1938    7.1432  -11.6228 H   0  0  0  0  0  0  0  0  0  0  0  0
   26.2748    6.1857   -9.6918 H   0  0  0  0  0  0  0  0  0  0  0  0
   26.2719    9.8053  -10.3492 H   0  0  0  0  0  0  0  0  0  0  0  0
   29.8523   11.8776  -13.2907 H   0  0  0  0  0  0  0  0  0  0  0  0
   27.5660   11.6542  -11.8875 H   0  0  0  0  0  0  0  0  0  0  0  0
   25.2848    5.7339   -7.5706 H   0  0  0  0  0  0  0  0  0  0  0  0
   23.9828    8.9191   -5.0730 H   0  0  0  0  0  0  0  0  0  0  0  0
   25.1106   10.5417   -6.5912 H   0  0  0  0  0  0  0  0  0  0  0  0
   26.4168    9.7113   -8.5442 H   0  0  0  0  0  0  0  0  0  0  0  0
  1  7  1  0
  1  2  2  0
  1  4  1  0
  2  3  1  0
  3  5  1  0
  5  8  2  0
  5  6  1  0
  6 10  1  0
  6  7  2  0
  8  9  1  0
  9 10  2  0
  4 11  1  0
 11 16  2  0
 11 12  1  0
 12 13  1  0
 13 14  1  0
 13 17  2  0
 14 15  2  0
 15 16  1  0
  2 18  1  0
  3 19  1  0
  4 20  1  0
  7 21  1  0
  9 22  1  0
 10 23  1  0
 12 24  1  0
 14 25  1  0
 15 26  1  0
 16 27  1  0
M  END
>  <Pose ID>  (578)
35

>  <Score>  (578)
-5.160208702087402

>  <smiles>  (578)
O=c1cccc(Nc2c[nH]c3nccc-3c2)[nH]1

$$$$

     RDKit          3D

 38 41  0  0  0  0  0  0  0  0999 V2000
   27.2300    8.3550  -10.2530 C   0  0  0  0  0  0  0  0  0  0  0  0
   27.9030    7.3540  -10.9410 C   0  0  0  0  0  0  0  0  0  0  0  0
   28.9470    7.6810  -11.8000 N   0  0  0  0  0  0  0  0  0  0  0  0
   29.3180    9.0090  -11.9670 C   0  0  0  0  0  0  0  0  0  0  0  0
   26.1680    7.8480   -9.3880 O   0  0  0  0  0  0  0  0  0  0  0  0
   28.6440   10.0120  -11.2780 C   0  0  0  0  0  0  0  0  0  0  0  0
   27.6020    9.6840  -10.4200 C   0  0  0  0  0  0  0  0  0  0  0  0
   30.2800    9.5670  -12.7280 N   0  0  0  0  0  0  0  0  0  0  0  0
   30.2460   10.9340  -12.5550 C   0  0  0  0  0  0  0  0  0  0  0  0
   29.1780   11.0450  -11.6340 C   0  0  0  0  0  0  0  0  0  0  0  0
   25.5460    8.5980   -8.3840 C   0  0  0  0  0  0  0  0  0  0  0  0
   25.1600    9.8880   -8.7080 N   0  0  0  0  0  0  0  0  0  0  0  0
   24.6020   10.4620   -7.5830 N   0  0  0  0  0  0  0  0  0  0  0  0
   24.6250    9.5570   -6.5920 C   0  0  0  0  0  0  0  0  0  0  0  0
   25.1720    8.4340   -7.0620 C   0  0  0  0  0  0  0  0  0  0  0  0
   24.1480   11.6510   -7.5470 C   0  0  0  0  0  0  0  0  0  0  0  0
   23.5240   12.2940   -6.4850 N   0  0  0  0  0  0  0  0  0  0  0  0
   23.0720   13.6000   -6.6310 C   0  0  0  0  0  0  0  0  0  0  0  0
   24.3170   12.3150   -8.7570 C   0  0  0  0  0  0  0  0  0  0  0  0
   23.8650   13.6210   -8.9030 C   0  0  0  0  0  0  0  0  0  0  0  0
   23.2330   14.2560   -7.8670 C   0  0  0  0  0  0  0  0  0  0  0  0
   25.3570    7.1660   -6.2660 C   0  0  1  0  0  0  0  0  0  0  0  0
   24.1180    9.7730   -5.1860 C   0  0  1  0  0  0  0  0  0  0  0  0
   27.6104    6.3022  -10.8066 H   0  0  0  0  0  0  0  0  0  0  0  0
   29.4447    6.9387  -12.3120 H   0  0  0  0  0  0  0  0  0  0  0  0
   27.0708   10.4764   -9.8723 H   0  0  0  0  0  0  0  0  0  0  0  0
   30.8726   11.7176  -13.0059 H   0  0  0  0  0  0  0  0  0  0  0  0
   28.8451   12.0230  -11.2563 H   0  0  0  0  0  0  0  0  0  0  0  0
   22.5920   14.1177   -5.7874 H   0  0  0  0  0  0  0  0  0  0  0  0
   24.8088   11.8062   -9.5992 H   0  0  0  0  0  0  0  0  0  0  0  0
   24.0158   14.1481   -9.8566 H   0  0  0  0  0  0  0  0  0  0  0  0
   22.8509   15.2789   -8.0003 H   0  0  0  0  0  0  0  0  0  0  0  0
   25.3230    7.3993   -5.1916 H   0  0  0  0  0  0  0  0  0  0  0  0
   24.5527    6.4574   -6.5130 H   0  0  0  0  0  0  0  0  0  0  0  0
   26.3302    6.7167   -6.5130 H   0  0  0  0  0  0  0  0  0  0  0  0
   24.8832    9.4470   -4.4662 H   0  0  0  0  0  0  0  0  0  0  0  0
   23.9028   10.8410   -5.0339 H   0  0  0  0  0  0  0  0  0  0  0  0
   23.1987    9.1884   -5.0339 H   0  0  0  0  0  0  0  0  0  0  0  0
 11  5  1  0
 11 12  2  0
 11 15  1  0
 12 13  1  0
 13 16  1  0
 13 14  1  0
 14 15  2  0
 14 23  1  0
 15 22  1  0
 16 19  1  0
 16 17  2  0
 17 18  1  0
 18 21  2  0
 19 20  2  0
 20 21  1  0
  5  1  1  0
  1  2  2  0
  1  7  1  0
  2  3  1  0
  3  4  1  0
  4  8  2  0
  4  6  1  0
  6 10  1  0
  6  7  2  0
  8  9  1  0
  9 10  2  0
  2 24  1  0
  3 25  1  0
  7 26  1  0
  9 27  1  0
 10 28  1  0
 18 29  1  0
 19 30  1  0
 20 31  1  0
 21 32  1  0
 22 33  1  1
 22 34  1  0
 22 35  1  0
 23 36  1  1
 23 37  1  0
 23 38  1  0
M  END
>  <Pose ID>  (579)
233

>  <Score>  (579)
-5.158315658569336

>  <smiles>  (579)
Cc1c(Oc2c[nH]c3nccc-3c2)nn(-c2ccccn2)c1C

$$$$

     RDKit          3D

 38 41  0  0  0  0  0  0  0  0999 V2000
   27.3270    8.3980  -10.3370 C   0  0  0  0  0  0  0  0  0  0  0  0
   28.0190    7.3960  -11.0010 C   0  0  0  0  0  0  0  0  0  0  0  0
   29.0750    7.7220  -11.8440 N   0  0  0  0  0  0  0  0  0  0  0  0
   29.4380    9.0510  -12.0230 C   0  0  0  0  0  0  0  0  0  0  0  0
   26.2540    7.8920   -9.4850 O   0  0  0  0  0  0  0  0  0  0  0  0
   28.7430   10.0550  -11.3580 C   0  0  0  0  0  0  0  0  0  0  0  0
   27.6880    9.7290  -10.5140 C   0  0  0  0  0  0  0  0  0  0  0  0
   30.4060    9.6080  -12.7760 N   0  0  0  0  0  0  0  0  0  0  0  0
   30.3560   10.9750  -12.6180 C   0  0  0  0  0  0  0  0  0  0  0  0
   29.2730   11.0900  -11.7200 C   0  0  0  0  0  0  0  0  0  0  0  0
   25.6080    8.6500   -8.5010 C   0  0  0  0  0  0  0  0  0  0  0  0
   25.2160    9.9340   -8.8480 N   0  0  0  0  0  0  0  0  0  0  0  0
   24.6330   10.5140   -7.7370 N   0  0  0  0  0  0  0  0  0  0  0  0
   24.6470    9.6230   -6.7350 C   0  0  0  0  0  0  0  0  0  0  0  0
   25.2140    8.4970   -7.1810 C   0  0  0  0  0  0  0  0  0  0  0  0
   24.1390   11.7130   -7.6940 C   0  0  0  0  0  0  0  0  0  0  0  0
   23.5610   12.2110   -6.5330 C   0  0  0  0  0  0  0  0  0  0  0  0
   24.2350   12.5170   -8.8250 N   0  0  0  0  0  0  0  0  0  0  0  0
   23.0770   13.5140   -6.5020 C   0  0  0  0  0  0  0  0  0  0  0  0
   23.7520   13.8200   -8.7930 C   0  0  0  0  0  0  0  0  0  0  0  0
   23.2090   14.3280   -7.6480 C   0  0  0  0  0  0  0  0  0  0  0  0
   25.3990    7.2420   -6.3650 C   0  0  1  0  0  0  0  0  0  0  0  0
   28.7940   12.4350  -11.2310 C   0  0  1  0  0  0  0  0  0  0  0  0
   27.7321    6.3434  -10.8605 H   0  0  0  0  0  0  0  0  0  0  0  0
   29.5889    6.9775  -12.3365 H   0  0  0  0  0  0  0  0  0  0  0  0
   27.1392   10.5231   -9.9866 H   0  0  0  0  0  0  0  0  0  0  0  0
   30.9845   11.7586  -13.0664 H   0  0  0  0  0  0  0  0  0  0  0  0
   24.2584    9.7898   -5.7195 H   0  0  0  0  0  0  0  0  0  0  0  0
   23.4863   11.5748   -5.6388 H   0  0  0  0  0  0  0  0  0  0  0  0
   22.5962   13.9067   -5.5939 H   0  0  0  0  0  0  0  0  0  0  0  0
   23.8076   14.4458   -9.6959 H   0  0  0  0  0  0  0  0  0  0  0  0
   22.8732   15.3751   -7.6182 H   0  0  0  0  0  0  0  0  0  0  0  0
   25.3622    7.4920   -5.2944 H   0  0  0  0  0  0  0  0  0  0  0  0
   24.5963    6.5284   -6.6027 H   0  0  0  0  0  0  0  0  0  0  0  0
   26.3734    6.7904   -6.6027 H   0  0  0  0  0  0  0  0  0  0  0  0
   28.7904   12.4452  -10.1311 H   0  0  0  0  0  0  0  0  0  0  0  0
   29.4673   13.2214  -11.6028 H   0  0  0  0  0  0  0  0  0  0  0  0
   27.7752   12.6187  -11.6028 H   0  0  0  0  0  0  0  0  0  0  0  0
  5  1  1  0
  5 11  1  0
  1  2  2  0
  1  7  1  0
  2  3  1  0
  3  4  1  0
  4  8  2  0
  4  6  1  0
  6 10  1  0
  6  7  2  0
  8  9  1  0
  9 10  2  0
 10 23  1  0
 11 12  2  0
 11 15  1  0
 12 13  1  0
 13 16  1  0
 13 14  1  0
 14 15  2  0
 15 22  1  0
 16 18  1  0
 16 17  2  0
 17 19  1  0
 18 20  2  0
 19 21  2  0
 20 21  1  0
  2 24  1  0
  3 25  1  0
  7 26  1  0
  9 27  1  0
 14 28  1  0
 17 29  1  0
 19 30  1  0
 20 31  1  0
 21 32  1  0
 22 33  1  1
 22 34  1  0
 22 35  1  0
 23 36  1  1
 23 37  1  0
 23 38  1  0
M  END
>  <Pose ID>  (580)
394

>  <Score>  (580)
-5.157324314117432

>  <smiles>  (580)
Cc1cnc2[nH]cc(Oc3nn(-c4ccccn4)cc3C)cc1-2

$$$$

     RDKit          3D

 40 42  0  0  0  0  0  0  0  0999 V2000
   28.5100   10.3330  -12.0250 C   0  0  0  0  0  0  0  0  0  0  0  0
   29.5120    9.3750  -11.9220 C   0  0  0  0  0  0  0  0  0  0  0  0
   29.3330    8.1850  -11.2310 N   0  0  0  0  0  0  0  0  0  0  0  0
   28.0950    7.9190  -10.6590 C   0  0  0  0  0  0  0  0  0  0  0  0
   27.0590    8.8390  -10.7790 C   0  0  0  0  0  0  0  0  0  0  0  0
   27.2590   10.0100  -11.4840 C   0  0  0  0  0  0  0  0  0  0  0  0
   27.9110    6.8560  -10.0430 O   0  0  0  0  0  0  0  0  0  0  0  0
   30.7610    9.6180  -12.4860 N   0  0  0  0  0  0  0  0  0  0  0  0
   31.0040   10.8110  -13.1530 C   0  0  0  0  0  0  0  0  0  0  0  0
   29.9990   11.7660  -13.2560 C   0  0  0  0  0  0  0  0  0  0  0  0
   28.7490   11.5220  -12.6800 C   0  0  0  0  0  0  0  0  0  0  0  0
   25.7740    8.8160  -10.2980 N   0  0  0  0  0  0  0  0  0  0  0  0
   25.4750    8.7190   -8.8490 C   0  0  0  0  0  0  0  0  0  0  0  0
   25.0550    7.4950   -8.3370 C   0  0  0  0  0  0  0  0  0  0  0  0
   24.7690    7.3680   -6.9840 C   0  0  0  0  0  0  0  0  0  0  0  0
   24.9020    8.4640   -6.1390 C   0  0  0  0  0  0  0  0  0  0  0  0
   25.3190    9.6870   -6.6510 C   0  0  0  0  0  0  0  0  0  0  0  0
   25.6050    9.8150   -8.0040 C   0  0  0  0  0  0  0  0  0  0  0  0
   25.4490   10.7650   -5.8190 N   0  0  0  0  0  0  0  0  0  0  0  0
   26.4460   11.8040   -6.1120 C   0  0  1  0  0  0  0  0  0  0  0  0
   25.1920   10.8940   -4.3970 C   0  0  1  0  0  0  0  0  0  0  0  0
   23.6690   10.6580   -4.1490 C   0  0  1  0  0  0  0  0  0  0  0  0
   30.1057    7.5096  -11.1435 H   0  0  0  0  0  0  0  0  0  0  0  0
   26.4172   10.7042  -11.6236 H   0  0  0  0  0  0  0  0  0  0  0  0
   31.9912   11.0005  -13.5997 H   0  0  0  0  0  0  0  0  0  0  0  0
   30.1867   12.7099  -13.7887 H   0  0  0  0  0  0  0  0  0  0  0  0
   27.9549   12.2800  -12.7495 H   0  0  0  0  0  0  0  0  0  0  0  0
   24.9914    8.8678  -10.9656 H   0  0  0  0  0  0  0  0  0  0  0  0
   24.9495    6.6272   -9.0047 H   0  0  0  0  0  0  0  0  0  0  0  0
   24.4371    6.3999   -6.5807 H   0  0  0  0  0  0  0  0  0  0  0  0
   24.6775    8.3634   -5.0669 H   0  0  0  0  0  0  0  0  0  0  0  0
   25.9345   10.7840   -8.4071 H   0  0  0  0  0  0  0  0  0  0  0  0
   26.8379   12.2125   -5.1688 H   0  0  0  0  0  0  0  0  0  0  0  0
   27.2712   11.3668   -6.6932 H   0  0  0  0  0  0  0  0  0  0  0  0
   25.9751   12.6105   -6.6932 H   0  0  0  0  0  0  0  0  0  0  0  0
   25.7789   10.1459   -3.8439 H   0  0  0  0  0  0  0  0  0  0  0  0
   25.4808   11.8970   -4.0499 H   0  0  0  0  0  0  0  0  0  0  0  0
   23.4741   10.6278   -3.0668 H   0  0  0  0  0  0  0  0  0  0  0  0
   23.0923   11.4775   -4.6027 H   0  0  0  0  0  0  0  0  0  0  0  0
   23.3674    9.7024   -4.6027 H   0  0  0  0  0  0  0  0  0  0  0  0
  1 11  1  0
  1  2  2  0
  1  6  1  0
  2  8  1  0
  2  3  1  0
  3  4  1  0
  4  5  1  0
  4  7  2  0
  5  6  2  0
  5 12  1  0
  8  9  2  0
  9 10  1  0
 10 11  2  0
 12 13  1  0
 13 14  2  0
 13 18  1  0
 14 15  1  0
 15 16  2  0
 16 17  1  0
 17 18  2  0
 17 19  1  0
 19 20  1  0
 19 21  1  0
 21 22  1  0
  3 23  1  0
  6 24  1  0
  9 25  1  0
 10 26  1  0
 11 27  1  0
 12 28  1  0
 14 29  1  0
 15 30  1  0
 16 31  1  0
 18 32  1  0
 20 33  1  1
 20 34  1  0
 20 35  1  0
 21 36  1  1
 21 37  1  0
 22 38  1  1
 22 39  1  0
 22 40  1  0
M  END
>  <Pose ID>  (581)
185

>  <Score>  (581)
-5.156747341156006

>  <smiles>  (581)
CCN(C)c1cccc(Nc2cc3cccnc3[nH]c2=O)c1

$$$$

     RDKit          3D

 38 41  0  0  0  0  0  0  0  0999 V2000
   27.1980    8.3590  -10.2250 C   0  0  0  0  0  0  0  0  0  0  0  0
   27.8740    7.3540  -10.9050 C   0  0  0  0  0  0  0  0  0  0  0  0
   28.9150    7.6790  -11.7680 N   0  0  0  0  0  0  0  0  0  0  0  0
   29.2820    9.0060  -11.9480 C   0  0  0  0  0  0  0  0  0  0  0  0
   26.1390    7.8560   -9.3540 O   0  0  0  0  0  0  0  0  0  0  0  0
   28.6020   10.0120  -11.2690 C   0  0  0  0  0  0  0  0  0  0  0  0
   27.5630    9.6870  -10.4060 C   0  0  0  0  0  0  0  0  0  0  0  0
   30.2390    9.5610  -12.7170 N   0  0  0  0  0  0  0  0  0  0  0  0
   30.2000   10.9280  -12.5560 C   0  0  0  0  0  0  0  0  0  0  0  0
   29.1330   11.0450  -11.6370 C   0  0  0  0  0  0  0  0  0  0  0  0
   25.5170    8.6130   -8.3540 C   0  0  0  0  0  0  0  0  0  0  0  0
   25.1260    9.8990   -8.6920 N   0  0  0  0  0  0  0  0  0  0  0  0
   24.5650   10.4800   -7.5690 N   0  0  0  0  0  0  0  0  0  0  0  0
   24.5940    9.5860   -6.5690 C   0  0  0  0  0  0  0  0  0  0  0  0
   25.1450    8.4590   -7.0320 C   0  0  0  0  0  0  0  0  0  0  0  0
   24.0960   11.7030   -7.5650 C   0  0  0  0  0  0  0  0  0  0  0  0
   23.5210   12.3670   -6.4870 C   0  0  0  0  0  0  0  0  0  0  0  0
   24.2590   12.3610   -8.7780 C   0  0  0  0  0  0  0  0  0  0  0  0
   23.8480   13.6810   -8.9140 N   0  0  0  0  0  0  0  0  0  0  0  0
   23.1100   13.6860   -6.6220 C   0  0  0  0  0  0  0  0  0  0  0  0
   23.2950   14.3460   -7.8300 C   0  0  0  0  0  0  0  0  0  0  0  0
   22.4630   14.4000   -5.4610 C   0  0  1  0  0  0  0  0  0  0  0  0
   25.3350    7.1980   -6.2260 C   0  0  1  0  0  0  0  0  0  0  0  0
   27.5862    6.3021  -10.7610 H   0  0  0  0  0  0  0  0  0  0  0  0
   29.4146    6.9341  -12.2745 H   0  0  0  0  0  0  0  0  0  0  0  0
   27.0287   10.4822   -9.8654 H   0  0  0  0  0  0  0  0  0  0  0  0
   30.8241   11.7094  -13.0141 H   0  0  0  0  0  0  0  0  0  0  0  0
   28.7965   12.0258  -11.2699 H   0  0  0  0  0  0  0  0  0  0  0  0
   24.2278    9.7515   -5.5451 H   0  0  0  0  0  0  0  0  0  0  0  0
   23.3917   11.8466   -5.5265 H   0  0  0  0  0  0  0  0  0  0  0  0
   24.7138   11.8363   -9.6311 H   0  0  0  0  0  0  0  0  0  0  0  0
   23.0014   15.4016   -7.9274 H   0  0  0  0  0  0  0  0  0  0  0  0
   22.8416   13.9821   -4.5165 H   0  0  0  0  0  0  0  0  0  0  0  0
   22.7034   15.4723   -5.5100 H   0  0  0  0  0  0  0  0  0  0  0  0
   21.3723   14.2661   -5.5100 H   0  0  0  0  0  0  0  0  0  0  0  0
   25.2986    7.4394   -5.1534 H   0  0  0  0  0  0  0  0  0  0  0  0
   24.5343    6.4837   -6.4684 H   0  0  0  0  0  0  0  0  0  0  0  0
   26.3106    6.7514   -6.4684 H   0  0  0  0  0  0  0  0  0  0  0  0
 11  5  1  0
 11 12  2  0
 11 15  1  0
 12 13  1  0
 13 16  1  0
 13 14  1  0
 14 15  2  0
 15 23  1  0
 16 18  1  0
 16 17  2  0
 17 20  1  0
 18 19  2  0
 19 21  1  0
 20 21  2  0
 20 22  1  0
  5  1  1  0
  1  2  2  0
  1  7  1  0
  2  3  1  0
  3  4  1  0
  4  8  2  0
  4  6  1  0
  6 10  1  0
  6  7  2  0
  8  9  1  0
  9 10  2  0
  2 24  1  0
  3 25  1  0
  7 26  1  0
  9 27  1  0
 10 28  1  0
 14 29  1  0
 17 30  1  0
 18 31  1  0
 21 32  1  0
 22 33  1  1
 22 34  1  0
 22 35  1  0
 23 36  1  1
 23 37  1  0
 23 38  1  0
M  END
>  <Pose ID>  (582)
423

>  <Score>  (582)
-5.151100158691406

>  <smiles>  (582)
Cc1cncc(-n2cc(C)c(Oc3c[nH]c4nccc-4c3)n2)c1

$$$$

     RDKit          3D

 28 30  0  0  0  0  0  0  0  0999 V2000
   26.1160    7.5400   -8.0600 C   0  0  0  0  0  0  0  0  0  0  0  0
   26.9990    7.3940   -9.1070 N   0  0  0  0  0  0  0  0  0  0  0  0
   27.3520    8.5190   -9.8430 C   0  0  0  0  0  0  0  0  0  0  0  0
   25.6920    8.8300   -7.7600 C   0  0  0  0  0  0  0  0  0  0  0  0
   26.8230    9.7610   -9.5110 C   0  0  0  0  0  0  0  0  0  0  0  0
   26.0070    9.8970   -8.4130 C   0  0  0  0  0  0  0  0  0  0  0  0
   25.6960    6.4700   -7.2780 C   0  0  0  0  0  0  0  0  0  0  0  0
   24.8520    6.6900   -6.1960 C   0  0  0  0  0  0  0  0  0  0  0  0
   24.4270    7.9800   -5.8960 C   0  0  0  0  0  0  0  0  0  0  0  0
   24.8480    9.0500   -6.6790 C   0  0  0  0  0  0  0  0  0  0  0  0
   28.2220    8.4020  -10.8990 N   0  0  0  0  0  0  0  0  0  0  0  0
   28.7000    9.4510  -11.6430 C   0  0  0  0  0  0  0  0  0  0  0  0
   30.0680    9.5140  -11.8830 C   0  0  0  0  0  0  0  0  0  0  0  0
   30.5890   10.5330  -12.6710 C   0  0  0  0  0  0  0  0  0  0  0  0
   29.7430   11.4890  -13.2200 C   0  0  0  0  0  0  0  0  0  0  0  0
   28.3750   11.4270  -12.9800 N   0  0  0  0  0  0  0  0  0  0  0  0
   27.8280   10.4140  -12.2190 C   0  0  0  0  0  0  0  0  0  0  0  0
   27.0585   10.6393  -10.1300 H   0  0  0  0  0  0  0  0  0  0  0  0
   25.6346   10.8840   -8.1013 H   0  0  0  0  0  0  0  0  0  0  0  0
   26.0316    5.4497   -7.5156 H   0  0  0  0  0  0  0  0  0  0  0  0
   24.5200    5.8437   -5.5767 H   0  0  0  0  0  0  0  0  0  0  0  0
   23.7584    8.1540   -5.0401 H   0  0  0  0  0  0  0  0  0  0  0  0
   24.5125   10.0704   -6.4420 H   0  0  0  0  0  0  0  0  0  0  0  0
   28.5397    7.4553  -11.1516 H   0  0  0  0  0  0  0  0  0  0  0  0
   30.7379    8.7571  -11.4490 H   0  0  0  0  0  0  0  0  0  0  0  0
   31.6714   10.5829  -12.8603 H   0  0  0  0  0  0  0  0  0  0  0  0
   30.1558   12.2949  -13.8446 H   0  0  0  0  0  0  0  0  0  0  0  0
   26.7410   10.3533  -12.0617 H   0  0  0  0  0  0  0  0  0  0  0  0
  1  2  2  0
  1  4  1  0
  1  7  1  0
  2  3  1  0
  3 11  1  0
  3  5  2  0
  4  6  2  0
  4 10  1  0
  5  6  1  0
  7  8  2  0
  8  9  1  0
  9 10  2  0
 11 12  1  0
 12 17  1  0
 12 13  2  0
 13 14  1  0
 14 15  2  0
 15 16  1  0
 16 17  2  0
  5 18  1  0
  6 19  1  0
  7 20  1  0
  8 21  1  0
  9 22  1  0
 10 23  1  0
 11 24  1  0
 13 25  1  0
 14 26  1  0
 15 27  1  0
 17 28  1  0
M  END
>  <Pose ID>  (583)
89

>  <Score>  (583)
-5.1490864753723145

>  <smiles>  (583)
c1cncc(Nc2ccc3ccccc3n2)c1

$$$$

     RDKit          3D

 31 34  0  0  0  0  0  0  0  0999 V2000
   27.6930    8.0740  -10.3190 C   0  0  0  0  0  0  0  0  0  0  0  0
   28.6100    7.2200  -10.9200 C   0  0  0  0  0  0  0  0  0  0  0  0
   29.5770    7.7310  -11.7760 N   0  0  0  0  0  0  0  0  0  0  0  0
   29.6310    9.0960  -12.0310 C   0  0  0  0  0  0  0  0  0  0  0  0
   26.7490    7.3840   -9.4440 O   0  0  0  0  0  0  0  0  0  0  0  0
   28.7130    9.9520  -11.4300 C   0  0  0  0  0  0  0  0  0  0  0  0
   27.7470    9.4390  -10.5730 C   0  0  0  0  0  0  0  0  0  0  0  0
   30.4610    9.8180  -12.8090 N   0  0  0  0  0  0  0  0  0  0  0  0
   30.0980   11.1440  -12.7340 C   0  0  0  0  0  0  0  0  0  0  0  0
   29.0010   11.0590  -11.8490 C   0  0  0  0  0  0  0  0  0  0  0  0
   25.9300    8.0290   -8.5090 C   0  0  0  0  0  0  0  0  0  0  0  0
   25.2640    9.1660   -8.9320 N   0  0  0  0  0  0  0  0  0  0  0  0
   24.5710    9.6340   -7.8850 N   0  0  0  0  0  0  0  0  0  0  0  0
   24.7320    8.8280   -6.7650 C   0  0  0  0  0  0  0  0  0  0  0  0
   25.5580    7.8640   -7.1870 C   0  0  0  0  0  0  0  0  0  0  0  0
   23.7510   10.7550   -7.8220 C   0  0  0  0  0  0  0  0  0  0  0  0
   23.0930   11.0690   -6.6390 N   0  0  0  0  0  0  0  0  0  0  0  0
   23.2540   10.2620   -5.5180 C   0  0  0  0  0  0  0  0  0  0  0  0
   24.0730    9.1410   -5.5810 C   0  0  0  0  0  0  0  0  0  0  0  0
   26.0300    6.7240   -6.3190 C   0  0  1  0  0  0  0  0  0  0  0  0
   28.5699    6.1395  -10.7178 H   0  0  0  0  0  0  0  0  0  0  0  0
   30.2552    7.0973  -12.2225 H   0  0  0  0  0  0  0  0  0  0  0  0
   27.0233   10.1152  -10.0945 H   0  0  0  0  0  0  0  0  0  0  0  0
   30.5391   12.0235  -13.2259 H   0  0  0  0  0  0  0  0  0  0  0  0
   28.4321   11.9522  -11.5513 H   0  0  0  0  0  0  0  0  0  0  0  0
   23.6231   11.3934   -8.7086 H   0  0  0  0  0  0  0  0  0  0  0  0
   22.7332   10.5109   -4.5816 H   0  0  0  0  0  0  0  0  0  0  0  0
   24.1999    8.5017   -4.6949 H   0  0  0  0  0  0  0  0  0  0  0  0
   25.9165    6.9983   -5.2598 H   0  0  0  0  0  0  0  0  0  0  0  0
   25.4290    5.8277   -6.5321 H   0  0  0  0  0  0  0  0  0  0  0  0
   27.0887    6.5148   -6.5321 H   0  0  0  0  0  0  0  0  0  0  0  0
  5  1  1  0
  5 11  1  0
  1  2  2  0
  1  7  1  0
  2  3  1  0
  3  4  1  0
  4  8  2  0
  4  6  1  0
  6 10  1  0
  6  7  2  0
  8  9  1  0
  9 10  2  0
 11 12  2  0
 11 15  1  0
 12 13  1  0
 13 16  1  0
 13 14  1  0
 14 15  2  0
 14 19  1  0
 15 20  1  0
 16 17  2  0
 17 18  1  0
 18 19  2  0
  2 21  1  0
  3 22  1  0
  7 23  1  0
  9 24  1  0
 10 25  1  0
 16 26  1  0
 18 27  1  0
 19 28  1  0
 20 29  1  1
 20 30  1  0
 20 31  1  0
M  END
>  <Pose ID>  (584)
274

>  <Score>  (584)
-5.147006511688232

>  <smiles>  (584)
Cc1c(Oc2c[nH]c3nccc-3c2)nn2cnccc12

$$$$

     RDKit          3D

 29 32  0  0  0  0  0  0  0  0999 V2000
   27.8480    7.8230  -10.2480 C   0  0  0  0  0  0  0  0  0  0  0  0
   28.8230    7.1160  -10.9400 C   0  0  0  0  0  0  0  0  0  0  0  0
   29.6570    7.7780  -11.8340 N   0  0  0  0  0  0  0  0  0  0  0  0
   29.5170    9.1460  -12.0340 C   0  0  0  0  0  0  0  0  0  0  0  0
   27.0610    6.9870   -9.3450 O   0  0  0  0  0  0  0  0  0  0  0  0
   28.5400    9.8530  -11.3400 C   0  0  0  0  0  0  0  0  0  0  0  0
   27.7080    9.1910  -10.4460 C   0  0  0  0  0  0  0  0  0  0  0  0
   30.1930    9.9960  -12.8320 N   0  0  0  0  0  0  0  0  0  0  0  0
   29.6690   11.2600  -12.6770 C   0  0  0  0  0  0  0  0  0  0  0  0
   28.6550   11.0020  -11.7290 C   0  0  0  0  0  0  0  0  0  0  0  0
   26.2320    7.4860   -8.3340 C   0  0  0  0  0  0  0  0  0  0  0  0
   25.3960    8.5400   -8.6660 N   0  0  0  0  0  0  0  0  0  0  0  0
   24.7340    8.8760   -7.5900 N   0  0  0  0  0  0  0  0  0  0  0  0
   25.0350    8.1130   -6.4680 C   0  0  0  0  0  0  0  0  0  0  0  0
   25.9730    7.2300   -6.9990 C   0  0  0  0  0  0  0  0  0  0  0  0
   23.7870    9.8900   -7.5060 C   0  0  0  0  0  0  0  0  0  0  0  0
   23.1420   10.1420   -6.3010 C   0  0  0  0  0  0  0  0  0  0  0  0
   23.4430    9.3790   -5.1790 C   0  0  0  0  0  0  0  0  0  0  0  0
   24.3900    8.3640   -5.2630 C   0  0  0  0  0  0  0  0  0  0  0  0
   28.9352    6.0334  -10.7809 H   0  0  0  0  0  0  0  0  0  0  0  0
   30.3792    7.2540  -12.3485 H   0  0  0  0  0  0  0  0  0  0  0  0
   26.9379    9.7502   -9.8945 H   0  0  0  0  0  0  0  0  0  0  0  0
   29.9592   12.2060  -13.1574 H   0  0  0  0  0  0  0  0  0  0  0  0
   27.9981   11.8026  -11.3581 H   0  0  0  0  0  0  0  0  0  0  0  0
   26.4517    6.4236   -6.4241 H   0  0  0  0  0  0  0  0  0  0  0  0
   23.5479   10.4935   -8.3940 H   0  0  0  0  0  0  0  0  0  0  0  0
   22.3933   10.9452   -6.2353 H   0  0  0  0  0  0  0  0  0  0  0  0
   22.9325    9.5778   -4.2251 H   0  0  0  0  0  0  0  0  0  0  0  0
   24.6285    7.7597   -4.3753 H   0  0  0  0  0  0  0  0  0  0  0  0
  1  2  2  0
  1  7  1  0
  1  5  1  0
  2  3  1  0
  3  4  1  0
  4  8  2  0
  4  6  1  0
  6 10  1  0
  6  7  2  0
  8  9  1  0
  9 10  2  0
  5 11  1  0
 11 12  2  0
 11 15  1  0
 12 13  1  0
 13 16  1  0
 13 14  1  0
 14 15  2  0
 14 19  1  0
 16 17  2  0
 17 18  1  0
 18 19  2  0
  2 20  1  0
  3 21  1  0
  7 22  1  0
  9 23  1  0
 10 24  1  0
 15 25  1  0
 16 26  1  0
 17 27  1  0
 18 28  1  0
 19 29  1  0
M  END
>  <Pose ID>  (585)
326

>  <Score>  (585)
-5.14271879196167

>  <smiles>  (585)
c1ccn2nc(Oc3c[nH]c4nccc-4c3)cc2c1

$$$$

     RDKit          3D

 34 36  0  0  0  0  0  0  0  0999 V2000
   27.8170    7.9180   -9.8720 C   0  0  0  0  0  0  0  0  0  0  0  0
   26.9820    6.8130   -9.8140 N   0  0  0  0  0  0  0  0  0  0  0  0
   26.2450    6.5550   -8.6630 C   0  0  0  0  0  0  0  0  0  0  0  0
   27.9190    8.7720   -8.7790 N   0  0  0  0  0  0  0  0  0  0  0  0
   26.3490    7.4080   -7.5690 C   0  0  0  0  0  0  0  0  0  0  0  0
   27.1020    8.4920   -7.6180 C   0  0  0  0  0  0  0  0  0  0  0  0
   28.4770    8.1490  -10.9020 O   0  0  0  0  0  0  0  0  0  0  0  0
   25.6550    7.1200   -6.4190 N   0  0  0  0  0  0  0  0  0  0  0  0
   24.3580    7.5880   -6.1130 C   0  0  0  0  0  0  0  0  0  0  0  0
   23.2810    6.7920   -5.7410 N   0  0  0  0  0  0  0  0  0  0  0  0
   22.0500    7.3750   -5.4560 C   0  0  0  0  0  0  0  0  0  0  0  0
   21.9010    8.7540   -5.5440 C   0  0  0  0  0  0  0  0  0  0  0  0
   22.9780    9.5490   -5.9140 C   0  0  0  0  0  0  0  0  0  0  0  0
   24.2150    8.9650   -6.1710 C   0  0  0  0  0  0  0  0  0  0  0  0
   20.5770    9.0940   -5.2110 C   0  0  0  0  0  0  0  0  0  0  0  0
   19.5060    8.2670   -5.3130 O   0  0  0  0  0  0  0  0  0  0  0  0
   20.2980   10.1830   -4.4410 N   0  0  0  0  0  0  0  0  0  0  0  0
   18.5180    8.9100   -4.5440 C   0  0  0  0  0  0  0  0  0  0  0  0
   19.0050   10.0950   -4.0170 C   0  0  0  0  0  0  0  0  0  0  0  0
   18.2610   11.0810   -3.1520 C   0  0  1  0  0  0  0  0  0  0  0  0
   17.2600   10.3110   -2.2930 C   0  0  1  0  0  0  0  0  0  0  0  0
   25.5816    5.6787   -8.6179 H   0  0  0  0  0  0  0  0  0  0  0  0
   28.5574    9.5801   -8.7955 H   0  0  0  0  0  0  0  0  0  0  0  0
   27.1081    9.1893   -6.7673 H   0  0  0  0  0  0  0  0  0  0  0  0
   26.1170    6.5150   -5.7251 H   0  0  0  0  0  0  0  0  0  0  0  0
   21.1969    6.7459   -5.1618 H   0  0  0  0  0  0  0  0  0  0  0  0
   22.8536   10.6383   -6.0038 H   0  0  0  0  0  0  0  0  0  0  0  0
   25.0799    9.5972   -6.4204 H   0  0  0  0  0  0  0  0  0  0  0  0
   17.5001    8.5249   -4.3837 H   0  0  0  0  0  0  0  0  0  0  0  0
   18.9709   11.6167   -2.5047 H   0  0  0  0  0  0  0  0  0  0  0  0
   17.7338   11.8129   -3.7816 H   0  0  0  0  0  0  0  0  0  0  0  0
   17.4820   10.4818   -1.2293 H   0  0  0  0  0  0  0  0  0  0  0  0
   16.2409   10.6602   -2.5155 H   0  0  0  0  0  0  0  0  0  0  0  0
   17.3361    9.2364   -2.5155 H   0  0  0  0  0  0  0  0  0  0  0  0
  8  5  1  0
  8  9  1  0
  9 14  1  0
  9 10  2  0
 10 11  1  0
 11 12  2  0
 12 13  1  0
 12 15  1  0
 13 14  2  0
  1  7  2  0
  1  2  1  0
  1  4  1  0
  2  3  2  0
  3  5  1  0
  4  6  1  0
  5  6  2  0
 15 16  1  0
 15 17  2  0
 16 18  1  0
 17 19  1  0
 18 19  2  0
 19 20  1  0
 20 21  1  0
  3 22  1  0
  4 23  1  0
  6 24  1  0
  8 25  1  0
 11 26  1  0
 13 27  1  0
 14 28  1  0
 18 29  1  0
 20 30  1  1
 20 31  1  0
 21 32  1  1
 21 33  1  0
 21 34  1  0
M  END
>  <Pose ID>  (586)
106

>  <Score>  (586)
-5.139864921569824

>  <smiles>  (586)
CCc1coc(-c2ccc(Nc3cnc(=O)[nH]c3)nc2)n1

$$$$

     RDKit          3D

 35 38  0  0  0  0  0  0  0  0999 V2000
   27.1700    9.1570  -10.1730 C   0  0  0  0  0  0  0  0  0  0  0  0
   27.8980    8.2030  -10.8690 C   0  0  0  0  0  0  0  0  0  0  0  0
   28.8600    8.5990  -11.7900 N   0  0  0  0  0  0  0  0  0  0  0  0
   29.0950    9.9490  -12.0140 C   0  0  0  0  0  0  0  0  0  0  0  0
   26.2060    8.5790   -9.2380 O   0  0  0  0  0  0  0  0  0  0  0  0
   28.3640   10.9060  -11.3150 C   0  0  0  0  0  0  0  0  0  0  0  0
   27.4030   10.5080  -10.3950 C   0  0  0  0  0  0  0  0  0  0  0  0
   29.9580   10.5720  -12.8400 N   0  0  0  0  0  0  0  0  0  0  0  0
   29.8020   11.9340  -12.6990 C   0  0  0  0  0  0  0  0  0  0  0  0
   28.7780   11.9750  -11.7280 C   0  0  0  0  0  0  0  0  0  0  0  0
   25.5670    9.3000   -8.2230 C   0  0  0  0  0  0  0  0  0  0  0  0
   25.0440   10.5370   -8.5590 N   0  0  0  0  0  0  0  0  0  0  0  0
   24.4930   11.0900   -7.4190 N   0  0  0  0  0  0  0  0  0  0  0  0
   24.6510   10.2250   -6.4070 C   0  0  0  0  0  0  0  0  0  0  0  0
   25.2800    9.1400   -6.8770 C   0  0  0  0  0  0  0  0  0  0  0  0
   23.8940   12.2370   -7.3610 C   0  0  0  0  0  0  0  0  0  0  0  0
   23.3590   12.7320   -6.1790 C   0  0  0  0  0  0  0  0  0  0  0  0
   23.8620   13.0080   -8.5150 N   0  0  0  0  0  0  0  0  0  0  0  0
   23.2930   14.2760   -8.4880 C   0  0  0  0  0  0  0  0  0  0  0  0
   22.7890   13.9990   -6.1510 C   0  0  0  0  0  0  0  0  0  0  0  0
   22.7570   14.7720   -7.2840 C   0  0  0  0  0  0  0  0  0  0  0  0
   27.6440    6.7350  -10.6270 C   0  0  1  0  0  0  0  0  0  0  0  0
   29.3995    7.8902  -12.3072 H   0  0  0  0  0  0  0  0  0  0  0  0
   26.8258   11.2634   -9.8416 H   0  0  0  0  0  0  0  0  0  0  0  0
   30.3282   12.7585  -13.2023 H   0  0  0  0  0  0  0  0  0  0  0  0
   28.3721   12.9291  -11.3608 H   0  0  0  0  0  0  0  0  0  0  0  0
   24.3208   10.3798   -5.3692 H   0  0  0  0  0  0  0  0  0  0  0  0
   25.5322    8.2507   -6.2808 H   0  0  0  0  0  0  0  0  0  0  0  0
   23.3864   12.1210   -5.2647 H   0  0  0  0  0  0  0  0  0  0  0  0
   23.2616   14.8881   -9.4014 H   0  0  0  0  0  0  0  0  0  0  0  0
   22.3606   14.3848   -5.2142 H   0  0  0  0  0  0  0  0  0  0  0  0
   22.3132   15.7780   -7.2519 H   0  0  0  0  0  0  0  0  0  0  0  0
   27.6106    6.5422   -9.5445 H   0  0  0  0  0  0  0  0  0  0  0  0
   26.6831    6.4496  -11.0800 H   0  0  0  0  0  0  0  0  0  0  0  0
   28.4531    6.1433  -11.0800 H   0  0  0  0  0  0  0  0  0  0  0  0
  5  1  1  0
  5 11  1  0
  1  2  2  0
  1  7  1  0
  2  3  1  0
  2 22  1  0
  3  4  1  0
  4  8  2  0
  4  6  1  0
  6 10  1  0
  6  7  2  0
  8  9  1  0
  9 10  2  0
 11 12  2  0
 11 15  1  0
 12 13  1  0
 13 16  1  0
 13 14  1  0
 14 15  2  0
 16 18  1  0
 16 17  2  0
 17 20  1  0
 18 19  2  0
 19 21  1  0
 20 21  2  0
  3 23  1  0
  7 24  1  0
  9 25  1  0
 10 26  1  0
 14 27  1  0
 15 28  1  0
 17 29  1  0
 19 30  1  0
 20 31  1  0
 21 32  1  0
 22 33  1  1
 22 34  1  0
 22 35  1  0
M  END
>  <Pose ID>  (587)
391

>  <Score>  (587)
-5.134743690490723

>  <smiles>  (587)
Cc1[nH]c2nccc-2cc1Oc1ccn(-c2ccccn2)n1

$$$$

     RDKit          3D

 36 39  0  0  0  0  0  0  0  0999 V2000
   27.6730    7.7950  -10.2230 C   0  0  0  0  0  0  0  0  0  0  0  0
   28.4630    7.0830  -11.1160 C   0  0  0  0  0  0  0  0  0  0  0  0
   29.2790    7.7610  -12.0140 N   0  0  0  0  0  0  0  0  0  0  0  0
   29.3070    9.1500  -12.0160 C   0  0  0  0  0  0  0  0  0  0  0  0
   26.8810    6.9380   -9.3430 O   0  0  0  0  0  0  0  0  0  0  0  0
   28.5170    9.8640  -11.1210 C   0  0  0  0  0  0  0  0  0  0  0  0
   27.7020    9.1840  -10.2230 C   0  0  0  0  0  0  0  0  0  0  0  0
   30.0040   10.0200  -12.7760 N   0  0  0  0  0  0  0  0  0  0  0  0
   29.6770   11.3010  -12.3950 C   0  0  0  0  0  0  0  0  0  0  0  0
   28.7440   11.0350  -11.3690 C   0  0  0  0  0  0  0  0  0  0  0  0
   26.2420    7.3830   -8.1810 C   0  0  0  0  0  0  0  0  0  0  0  0
   25.5270    8.5660   -8.2670 N   0  0  0  0  0  0  0  0  0  0  0  0
   25.0070    8.8410   -7.0150 N   0  0  0  0  0  0  0  0  0  0  0  0
   25.3680    7.8570   -6.1810 C   0  0  0  0  0  0  0  0  0  0  0  0
   26.0950    6.9700   -6.8670 C   0  0  0  0  0  0  0  0  0  0  0  0
   24.2560    9.9290   -6.7170 C   0  0  0  0  0  0  0  0  0  0  0  0
   24.7850   11.1810   -7.0050 C   0  0  0  0  0  0  0  0  0  0  0  0
   23.1560    9.8170   -5.8740 C   0  0  0  0  0  0  0  0  0  0  0  0
   22.5870   10.9570   -5.3210 C   0  0  0  0  0  0  0  0  0  0  0  0
   23.1160   12.2100   -5.6090 C   0  0  0  0  0  0  0  0  0  0  0  0
   24.2080   12.3200   -6.4470 N   0  0  0  0  0  0  0  0  0  0  0  0
   22.6060   13.2310   -5.1130 O   0  0  0  0  0  0  0  0  0  0  0  0
   21.3940   10.8360   -4.4050 C   0  0  1  0  0  0  0  0  0  0  0  0
   28.4430    5.9832  -11.1127 H   0  0  0  0  0  0  0  0  0  0  0  0
   29.8632    7.2334  -12.6783 H   0  0  0  0  0  0  0  0  0  0  0  0
   27.0794    9.7464   -9.5117 H   0  0  0  0  0  0  0  0  0  0  0  0
   30.0410   12.2642  -12.7819 H   0  0  0  0  0  0  0  0  0  0  0  0
   28.2455   11.8470  -10.8194 H   0  0  0  0  0  0  0  0  0  0  0  0
   25.1101    7.7904   -5.1137 H   0  0  0  0  0  0  0  0  0  0  0  0
   26.5164    6.0443   -6.4481 H   0  0  0  0  0  0  0  0  0  0  0  0
   25.6558   11.2727   -7.6708 H   0  0  0  0  0  0  0  0  0  0  0  0
   22.7366    8.8262   -5.6452 H   0  0  0  0  0  0  0  0  0  0  0  0
   24.5981   13.2490   -6.6608 H   0  0  0  0  0  0  0  0  0  0  0  0
   21.7305   10.8701   -3.3583 H   0  0  0  0  0  0  0  0  0  0  0  0
   20.7003   11.6684   -4.5945 H   0  0  0  0  0  0  0  0  0  0  0  0
   20.8816    9.8813   -4.5945 H   0  0  0  0  0  0  0  0  0  0  0  0
 11  5  1  0
 11 12  2  0
 11 15  1  0
 12 13  1  0
 13 16  1  0
 13 14  1  0
 14 15  2  0
 16 17  2  0
 16 18  1  0
 17 21  1  0
 18 19  2  0
 19 20  1  0
 19 23  1  0
 20 21  1  0
 20 22  2  0
  5  1  1  0
  1  2  2  0
  1  7  1  0
  2  3  1  0
  3  4  1  0
  4  8  2  0
  4  6  1  0
  6 10  1  0
  6  7  2  0
  8  9  1  0
  9 10  2  0
  2 24  1  0
  3 25  1  0
  7 26  1  0
  9 27  1  0
 10 28  1  0
 14 29  1  0
 15 30  1  0
 17 31  1  0
 18 32  1  0
 21 33  1  0
 23 34  1  1
 23 35  1  0
 23 36  1  0
M  END
>  <Pose ID>  (588)
464

>  <Score>  (588)
-5.1316399574279785

>  <smiles>  (588)
Cc1cc(-n2ccc(Oc3c[nH]c4nccc-4c3)n2)c[nH]c1=O

$$$$

     RDKit          3D

 28 30  0  0  0  0  0  0  0  0999 V2000
   27.6610   10.3370  -10.0660 C   0  0  0  0  0  0  0  0  0  0  0  0
   27.3870    9.0630   -9.5860 N   0  0  0  0  0  0  0  0  0  0  0  0
   28.3550   10.4990  -11.2570 N   0  0  0  0  0  0  0  0  0  0  0  0
   27.7960    7.9460  -10.3210 C   0  0  0  0  0  0  0  0  0  0  0  0
   28.5030    8.1070  -11.4910 C   0  0  0  0  0  0  0  0  0  0  0  0
   28.7750    9.3810  -11.9700 C   0  0  0  0  0  0  0  0  0  0  0  0
   27.5210    6.8030   -9.9180 O   0  0  0  0  0  0  0  0  0  0  0  0
   26.7750    8.7040   -8.3830 C   0  0  0  0  0  0  0  0  0  0  0  0
   25.5180    8.1110   -8.4180 C   0  0  0  0  0  0  0  0  0  0  0  0
   27.4610    8.8060   -7.1800 C   0  0  0  0  0  0  0  0  0  0  0  0
   24.9560    7.6110   -7.1930 C   0  0  0  0  0  0  0  0  0  0  0  0
   25.7340    7.7710   -6.0530 C   0  0  0  0  0  0  0  0  0  0  0  0
   26.8910    8.3150   -6.0100 N   0  0  0  0  0  0  0  0  0  0  0  0
   25.2680    7.3180   -4.8240 N   0  0  0  0  0  0  0  0  0  0  0  0
   24.0250    6.7030   -4.7350 C   0  0  0  0  0  0  0  0  0  0  0  0
   23.2470    6.5420   -5.8750 N   0  0  0  0  0  0  0  0  0  0  0  0
   23.6990    6.9940   -7.1040 C   0  0  0  0  0  0  0  0  0  0  0  0
   27.1450   11.2660   -9.1900 O   0  0  0  0  0  0  0  0  0  0  0  0
   27.1290   12.6210   -9.8110 C   0  0  1  0  0  0  0  0  0  0  0  0
   28.8529    7.2248  -12.0471 H   0  0  0  0  0  0  0  0  0  0  0  0
   29.3236    9.5067  -12.9151 H   0  0  0  0  0  0  0  0  0  0  0  0
   24.9643    8.0261   -9.3647 H   0  0  0  0  0  0  0  0  0  0  0  0
   28.4555    9.2752   -7.1523 H   0  0  0  0  0  0  0  0  0  0  0  0
   23.6572    6.3438   -3.7625 H   0  0  0  0  0  0  0  0  0  0  0  0
   23.0774    6.8702   -8.0030 H   0  0  0  0  0  0  0  0  0  0  0  0
   27.1200   13.3863   -9.0209 H   0  0  0  0  0  0  0  0  0  0  0  0
   28.0257   12.7489  -10.4352 H   0  0  0  0  0  0  0  0  0  0  0  0
   26.2295   12.7277  -10.4352 H   0  0  0  0  0  0  0  0  0  0  0  0
  8  2  1  0
  8  9  2  0
  8 10  1  0
  9 11  1  0
 10 13  2  0
 11 17  2  0
 11 12  1  0
 12 13  1  0
 12 14  2  0
 14 15  1  0
 15 16  2  0
 16 17  1  0
  1  3  2  0
  1  2  1  0
  1 18  1  0
  2  4  1  0
  3  6  1  0
  4  5  1  0
  4  7  2  0
  5  6  2  0
 18 19  1  0
  5 20  1  0
  6 21  1  0
  9 22  1  0
 10 23  1  0
 15 24  1  0
 17 25  1  0
 19 26  1  1
 19 27  1  0
 19 28  1  0
M  END
>  <Pose ID>  (589)
5

>  <Score>  (589)
-5.125256061553955

>  <smiles>  (589)
COc1nccc(=O)n1-c1cnc2ncncc2c1

$$$$

     RDKit          3D

 32 35  0  0  0  0  0  0  0  0999 V2000
   28.0580    7.9180  -10.5150 C   0  0  0  0  0  0  0  0  0  0  0  0
   28.8840    7.1260  -11.3010 C   0  0  0  0  0  0  0  0  0  0  0  0
   29.7910    7.7200  -12.1710 N   0  0  0  0  0  0  0  0  0  0  0  0
   29.8750    9.1040  -12.2530 C   0  0  0  0  0  0  0  0  0  0  0  0
   27.1670    7.1470   -9.6510 O   0  0  0  0  0  0  0  0  0  0  0  0
   29.0450    9.8970  -11.4660 C   0  0  0  0  0  0  0  0  0  0  0  0
   28.1390    9.3040  -10.5960 C   0  0  0  0  0  0  0  0  0  0  0  0
   30.6600    9.8990  -13.0070 N   0  0  0  0  0  0  0  0  0  0  0  0
   30.3560   11.2130  -12.7270 C   0  0  0  0  0  0  0  0  0  0  0  0
   29.3390   11.0410  -11.7650 C   0  0  0  0  0  0  0  0  0  0  0  0
   26.4600    7.6840   -8.5700 C   0  0  0  0  0  0  0  0  0  0  0  0
   25.8020    8.8840   -8.7810 N   0  0  0  0  0  0  0  0  0  0  0  0
   25.1990    9.2540   -7.5940 N   0  0  0  0  0  0  0  0  0  0  0  0
   25.4570    8.3110   -6.6750 C   0  0  0  0  0  0  0  0  0  0  0  0
   26.1980    7.3580   -7.2510 C   0  0  0  0  0  0  0  0  0  0  0  0
   24.5260   10.3350   -7.4740 C   0  0  0  0  0  0  0  0  0  0  0  0
   23.9350   10.5850   -6.2420 C   0  0  0  0  0  0  0  0  0  0  0  0
   24.3460   11.2250   -8.5260 C   0  0  0  0  0  0  0  0  0  0  0  0
   23.1630   11.7260   -6.0600 N   0  0  0  0  0  0  0  0  0  0  0  0
   23.5740   12.3660   -8.3440 C   0  0  0  0  0  0  0  0  0  0  0  0
   22.9860   12.6390   -7.0800 C   0  0  0  0  0  0  0  0  0  0  0  0
   28.8208    6.0298  -11.2354 H   0  0  0  0  0  0  0  0  0  0  0  0
   30.4021    7.1325  -12.7561 H   0  0  0  0  0  0  0  0  0  0  0  0
   27.4856    9.9306   -9.9711 H   0  0  0  0  0  0  0  0  0  0  0  0
   30.7862   12.1379  -13.1386 H   0  0  0  0  0  0  0  0  0  0  0  0
   28.8331   11.9024  -11.3046 H   0  0  0  0  0  0  0  0  0  0  0  0
   25.1177    8.3201   -5.6287 H   0  0  0  0  0  0  0  0  0  0  0  0
   26.5491    6.4451   -6.7478 H   0  0  0  0  0  0  0  0  0  0  0  0
   24.0782    9.8795   -5.4102 H   0  0  0  0  0  0  0  0  0  0  0  0
   24.8140   11.0265   -9.5015 H   0  0  0  0  0  0  0  0  0  0  0  0
   23.4175   13.0608   -9.1823 H   0  0  0  0  0  0  0  0  0  0  0  0
   22.4027   13.5574   -6.9177 H   0  0  0  0  0  0  0  0  0  0  0  0
  5  1  1  0
  5 11  1  0
  1  2  2  0
  1  7  1  0
  2  3  1  0
  3  4  1  0
  4  8  2  0
  4  6  1  0
  6 10  1  0
  6  7  2  0
  8  9  1  0
  9 10  2  0
 11 12  2  0
 11 15  1  0
 12 13  1  0
 13 16  1  0
 13 14  1  0
 14 15  2  0
 16 18  1  0
 16 17  2  0
 17 19  1  0
 18 20  2  0
 19 21  2  0
 20 21  1  0
  2 22  1  0
  3 23  1  0
  7 24  1  0
  9 25  1  0
 10 26  1  0
 14 27  1  0
 15 28  1  0
 17 29  1  0
 18 30  1  0
 20 31  1  0
 21 32  1  0
M  END
>  <Pose ID>  (590)
405

>  <Score>  (590)
-5.1225972175598145

>  <smiles>  (590)
c1cncc(-n2ccc(Oc3c[nH]c4nccc-4c3)n2)c1

$$$$

     RDKit          3D

 36 39  0  0  0  0  0  0  0  0999 V2000
   27.6830    7.8200  -10.2490 C   0  0  0  0  0  0  0  0  0  0  0  0
   28.4780    7.0930  -11.1260 C   0  0  0  0  0  0  0  0  0  0  0  0
   29.3080    7.7560  -12.0230 N   0  0  0  0  0  0  0  0  0  0  0  0
   29.3440    9.1440  -12.0400 C   0  0  0  0  0  0  0  0  0  0  0  0
   26.8770    6.9770   -9.3680 O   0  0  0  0  0  0  0  0  0  0  0  0
   28.5490    9.8730  -11.1610 C   0  0  0  0  0  0  0  0  0  0  0  0
   27.7200    9.2080  -10.2640 C   0  0  0  0  0  0  0  0  0  0  0  0
   30.0540   10.0010  -12.8020 N   0  0  0  0  0  0  0  0  0  0  0  0
   29.7300   11.2880  -12.4390 C   0  0  0  0  0  0  0  0  0  0  0  0
   28.7860   11.0390  -11.4210 C   0  0  0  0  0  0  0  0  0  0  0  0
   26.2290    7.4390   -8.2180 C   0  0  0  0  0  0  0  0  0  0  0  0
   25.5220    8.6250   -8.3240 N   0  0  0  0  0  0  0  0  0  0  0  0
   24.9900    8.9180   -7.0820 N   0  0  0  0  0  0  0  0  0  0  0  0
   25.3360    7.9410   -6.2320 C   0  0  0  0  0  0  0  0  0  0  0  0
   26.0650    7.0420   -6.9010 C   0  0  0  0  0  0  0  0  0  0  0  0
   24.2430   10.0130   -6.8030 C   0  0  0  0  0  0  0  0  0  0  0  0
   24.7820   11.2590   -7.1010 C   0  0  0  0  0  0  0  0  0  0  0  0
   23.1330    9.9170   -5.9710 C   0  0  0  0  0  0  0  0  0  0  0  0
   22.5650   11.0670   -5.4370 C   0  0  0  0  0  0  0  0  0  0  0  0
   23.1050   12.3130   -5.7340 C   0  0  0  0  0  0  0  0  0  0  0  0
   24.2060   12.4070   -6.5610 N   0  0  0  0  0  0  0  0  0  0  0  0
   22.5960   13.3430   -5.2540 O   0  0  0  0  0  0  0  0  0  0  0  0
   22.5460    8.5650   -5.6490 C   0  0  1  0  0  0  0  0  0  0  0  0
   28.4509    5.9934  -11.1108 H   0  0  0  0  0  0  0  0  0  0  0  0
   29.8962    7.2176  -12.6749 H   0  0  0  0  0  0  0  0  0  0  0  0
   27.0931    9.7820   -9.5658 H   0  0  0  0  0  0  0  0  0  0  0  0
   30.1033   12.2448  -12.8330 H   0  0  0  0  0  0  0  0  0  0  0  0
   28.2866   11.8604  -10.8863 H   0  0  0  0  0  0  0  0  0  0  0  0
   25.0664    7.8880   -5.1669 H   0  0  0  0  0  0  0  0  0  0  0  0
   26.4761    6.1184   -6.4674 H   0  0  0  0  0  0  0  0  0  0  0  0
   25.6591   11.3384   -7.7600 H   0  0  0  0  0  0  0  0  0  0  0  0
   21.6871   10.9914   -4.7785 H   0  0  0  0  0  0  0  0  0  0  0  0
   24.6042   13.3313   -6.7803 H   0  0  0  0  0  0  0  0  0  0  0  0
   22.4915    8.4395   -4.5575 H   0  0  0  0  0  0  0  0  0  0  0  0
   21.5354    8.4926   -6.0773 H   0  0  0  0  0  0  0  0  0  0  0  0
   23.1831    7.7772   -6.0773 H   0  0  0  0  0  0  0  0  0  0  0  0
 11  5  1  0
 11 12  2  0
 11 15  1  0
 12 13  1  0
 13 16  1  0
 13 14  1  0
 14 15  2  0
 16 17  2  0
 16 18  1  0
 17 21  1  0
 18 23  1  0
 18 19  2  0
 19 20  1  0
 20 21  1  0
 20 22  2  0
  5  1  1  0
  1  2  2  0
  1  7  1  0
  2  3  1  0
  3  4  1  0
  4  8  2  0
  4  6  1  0
  6 10  1  0
  6  7  2  0
  8  9  1  0
  9 10  2  0
  2 24  1  0
  3 25  1  0
  7 26  1  0
  9 27  1  0
 10 28  1  0
 14 29  1  0
 15 30  1  0
 17 31  1  0
 19 32  1  0
 21 33  1  0
 23 34  1  1
 23 35  1  0
 23 36  1  0
M  END
>  <Pose ID>  (591)
465

>  <Score>  (591)
-5.120188236236572

>  <smiles>  (591)
Cc1cc(=O)[nH]cc1-n1ccc(Oc2c[nH]c3nccc-3c2)n1

$$$$

     RDKit          3D

 28 31  0  0  0  0  0  0  0  0999 V2000
   27.8410    7.8300  -10.2290 C   0  0  0  0  0  0  0  0  0  0  0  0
   28.8090    7.1200  -10.9270 C   0  0  0  0  0  0  0  0  0  0  0  0
   29.6390    7.7780  -11.8270 N   0  0  0  0  0  0  0  0  0  0  0  0
   29.5010    9.1460  -12.0290 C   0  0  0  0  0  0  0  0  0  0  0  0
   27.0580    6.9980   -9.3200 O   0  0  0  0  0  0  0  0  0  0  0  0
   28.5290    9.8570  -11.3300 C   0  0  0  0  0  0  0  0  0  0  0  0
   27.7020    9.1980  -10.4300 C   0  0  0  0  0  0  0  0  0  0  0  0
   30.1740    9.9930  -12.8330 N   0  0  0  0  0  0  0  0  0  0  0  0
   29.6530   11.2580  -12.6780 C   0  0  0  0  0  0  0  0  0  0  0  0
   28.6440   11.0040  -11.7230 C   0  0  0  0  0  0  0  0  0  0  0  0
   26.2360    7.5010   -8.3040 C   0  0  0  0  0  0  0  0  0  0  0  0
   25.4010    8.5560   -8.6340 N   0  0  0  0  0  0  0  0  0  0  0  0
   24.7440    8.8950   -7.5480 N   0  0  0  0  0  0  0  0  0  0  0  0
   25.0400    8.1340   -6.4240 C   0  0  0  0  0  0  0  0  0  0  0  0
   25.9850    7.2480   -6.9670 C   0  0  0  0  0  0  0  0  0  0  0  0
   23.8030    9.9150   -7.4680 C   0  0  0  0  0  0  0  0  0  0  0  0
   23.1590   10.1750   -6.2650 C   0  0  0  0  0  0  0  0  0  0  0  0
   23.4560    9.4140   -5.1400 C   0  0  0  0  0  0  0  0  0  0  0  0
   24.3960    8.3930   -5.2200 N   0  0  0  0  0  0  0  0  0  0  0  0
   28.9189    6.0372  -10.7677 H   0  0  0  0  0  0  0  0  0  0  0  0
   30.3570    7.2513  -12.3447 H   0  0  0  0  0  0  0  0  0  0  0  0
   26.9358    9.7596   -9.8754 H   0  0  0  0  0  0  0  0  0  0  0  0
   29.9419   12.2024  -13.1625 H   0  0  0  0  0  0  0  0  0  0  0  0
   27.9907   11.8068  -11.3505 H   0  0  0  0  0  0  0  0  0  0  0  0
   26.4705    6.4441   -6.3943 H   0  0  0  0  0  0  0  0  0  0  0  0
   23.5681   10.5169   -8.3583 H   0  0  0  0  0  0  0  0  0  0  0  0
   22.4146   10.9824   -6.2025 H   0  0  0  0  0  0  0  0  0  0  0  0
   22.9472    9.6198   -4.1867 H   0  0  0  0  0  0  0  0  0  0  0  0
  1  2  2  0
  1  7  1  0
  1  5  1  0
  2  3  1  0
  3  4  1  0
  4  8  2  0
  4  6  1  0
  6 10  1  0
  6  7  2  0
  8  9  1  0
  9 10  2  0
  5 11  1  0
 11 12  2  0
 11 15  1  0
 12 13  1  0
 13 16  1  0
 13 14  1  0
 14 15  2  0
 14 19  1  0
 16 17  2  0
 17 18  1  0
 18 19  2  0
  2 20  1  0
  3 21  1  0
  7 22  1  0
  9 23  1  0
 10 24  1  0
 15 25  1  0
 16 26  1  0
 17 27  1  0
 18 28  1  0
M  END
>  <Pose ID>  (592)
327

>  <Score>  (592)
-5.116194725036621

>  <smiles>  (592)
c1cnc2cc(Oc3c[nH]c4nccc-4c3)nn2c1

$$$$

     RDKit          3D

 20 21  0  0  0  0  0  0  0  0999 V2000
   28.2300    7.1810  -11.0550 C   0  0  0  0  0  0  0  0  0  0  0  0
   27.3540    6.7730  -10.0560 N   0  0  0  0  0  0  0  0  0  0  0  0
   26.9560    7.6700   -9.0720 C   0  0  0  0  0  0  0  0  0  0  0  0
   27.4320    8.9750   -9.0890 C   0  0  0  0  0  0  0  0  0  0  0  0
   27.0400    9.8320   -8.0320 C   0  0  0  0  0  0  0  0  0  0  0  0
   26.1680    9.3840   -7.0470 C   0  0  0  0  0  0  0  0  0  0  0  0
   25.6880    8.0810   -7.0860 C   0  0  0  0  0  0  0  0  0  0  0  0
   26.0790    7.2250   -8.1060 C   0  0  0  0  0  0  0  0  0  0  0  0
   28.7060    8.4850  -11.0710 C   0  0  0  0  0  0  0  0  0  0  0  0
   28.3090    9.3830  -10.0880 C   0  0  0  0  0  0  0  0  0  0  0  0
   29.6560    8.9280  -12.1570 C   0  0  1  0  0  0  0  0  0  0  0  0
   28.5462    6.4706  -11.8330 H   0  0  0  0  0  0  0  0  0  0  0  0
   27.4287   10.8602   -7.9903 H   0  0  0  0  0  0  0  0  0  0  0  0
   25.8581   10.0607   -6.2370 H   0  0  0  0  0  0  0  0  0  0  0  0
   24.9967    7.7270   -6.3070 H   0  0  0  0  0  0  0  0  0  0  0  0
   25.6910    6.1964   -8.1435 H   0  0  0  0  0  0  0  0  0  0  0  0
   28.6880   10.4156  -10.1000 H   0  0  0  0  0  0  0  0  0  0  0  0
   30.5631    9.3510  -11.7006 H   0  0  0  0  0  0  0  0  0  0  0  0
   29.9282    8.0639  -12.7809 H   0  0  0  0  0  0  0  0  0  0  0  0
   29.1691    9.6919  -12.7809 H   0  0  0  0  0  0  0  0  0  0  0  0
  1  9  2  0
  1  2  1  0
  2  3  2  0
  3  4  1  0
  3  8  1  0
  4 10  2  0
  4  5  1  0
  5  6  2  0
  6  7  1  0
  7  8  2  0
  9 11  1  0
  9 10  1  0
  1 12  1  0
  5 13  1  0
  6 14  1  0
  7 15  1  0
  8 16  1  0
 10 17  1  0
 11 18  1  1
 11 19  1  0
 11 20  1  0
M  END
>  <Pose ID>  (593)
6

>  <Score>  (593)
-5.115726947784424

>  <smiles>  (593)
Cc1cnc2ccccc2c1

$$$$

     RDKit          3D

 34 36  0  0  0  0  0  0  0  0999 V2000
   27.8530    7.8890   -9.8170 C   0  0  0  0  0  0  0  0  0  0  0  0
   26.9610    6.8260   -9.8200 N   0  0  0  0  0  0  0  0  0  0  0  0
   26.1910    6.5570   -8.6960 C   0  0  0  0  0  0  0  0  0  0  0  0
   27.9760    8.6870   -8.6820 N   0  0  0  0  0  0  0  0  0  0  0  0
   26.3160    7.3550   -7.5630 C   0  0  0  0  0  0  0  0  0  0  0  0
   27.1250    8.3990   -7.5500 C   0  0  0  0  0  0  0  0  0  0  0  0
   28.5440    8.1310  -10.8230 O   0  0  0  0  0  0  0  0  0  0  0  0
   25.5880    7.0510   -6.4380 N   0  0  0  0  0  0  0  0  0  0  0  0
   24.3110    7.5710   -6.1320 C   0  0  0  0  0  0  0  0  0  0  0  0
   23.1880    6.8150   -5.8160 N   0  0  0  0  0  0  0  0  0  0  0  0
   21.9830    7.4470   -5.5270 C   0  0  0  0  0  0  0  0  0  0  0  0
   21.9040    8.8350   -5.5550 C   0  0  0  0  0  0  0  0  0  0  0  0
   23.0270    9.5900   -5.8690 C   0  0  0  0  0  0  0  0  0  0  0  0
   24.2370    8.9540   -6.1310 C   0  0  0  0  0  0  0  0  0  0  0  0
   20.5930    9.2270   -5.2280 C   0  0  0  0  0  0  0  0  0  0  0  0
   19.4560    8.8630   -5.7100 N   0  0  0  0  0  0  0  0  0  0  0  0
   18.4990    9.5600   -4.9570 O   0  0  0  0  0  0  0  0  0  0  0  0
   20.4160   10.2060   -4.1100 C   0  0  0  0  0  0  0  0  0  0  0  0
   18.9250   10.3390   -4.0950 C   0  0  0  0  0  0  0  0  0  0  0  0
   18.1050   11.2410   -3.2050 C   0  0  1  0  0  0  0  0  0  0  0  0
   22.9360   11.0950   -5.9260 C   0  0  1  0  0  0  0  0  0  0  0  0
   25.4836    5.7146   -8.7014 H   0  0  0  0  0  0  0  0  0  0  0  0
   28.6548    9.4610   -8.6504 H   0  0  0  0  0  0  0  0  0  0  0  0
   27.1513    9.0562   -6.6683 H   0  0  0  0  0  0  0  0  0  0  0  0
   26.0062    6.3925   -5.7654 H   0  0  0  0  0  0  0  0  0  0  0  0
   21.0939    6.8496   -5.2767 H   0  0  0  0  0  0  0  0  0  0  0  0
   25.1371    9.5515   -6.3379 H   0  0  0  0  0  0  0  0  0  0  0  0
   21.1715   10.6926   -3.4756 H   0  0  0  0  0  0  0  0  0  0  0  0
   18.3172   11.0076   -2.1512 H   0  0  0  0  0  0  0  0  0  0  0  0
   18.3647   12.2905   -3.4076 H   0  0  0  0  0  0  0  0  0  0  0  0
   17.0355   11.0822   -3.4076 H   0  0  0  0  0  0  0  0  0  0  0  0
   22.9115   11.4998   -4.9035 H   0  0  0  0  0  0  0  0  0  0  0  0
   23.8116   11.4954   -6.4580 H   0  0  0  0  0  0  0  0  0  0  0  0
   22.0186   11.3870   -6.4580 H   0  0  0  0  0  0  0  0  0  0  0  0
  8  5  1  0
  8  9  1  0
  9 14  1  0
  9 10  2  0
 10 11  1  0
 11 12  2  0
 12 13  1  0
 12 15  1  0
 13 14  2  0
 13 21  1  0
  1  7  2  0
  1  2  1  0
  1  4  1  0
  2  3  2  0
  3  5  1  0
  4  6  1  0
  5  6  2  0
 15 16  2  0
 15 18  1  0
 16 17  1  0
 17 19  1  0
 18 19  2  0
 19 20  1  0
  3 22  1  0
  4 23  1  0
  6 24  1  0
  8 25  1  0
 11 26  1  0
 14 27  1  0
 18 28  1  0
 20 29  1  1
 20 30  1  0
 20 31  1  0
 21 32  1  1
 21 33  1  0
 21 34  1  0
M  END
>  <Pose ID>  (594)
120

>  <Score>  (594)
-5.1139092445373535

>  <smiles>  (594)
Cc1cc(-c2cnc(Nc3cnc(=O)[nH]c3)cc2C)no1

$$$$

     RDKit          3D

 19 20  0  0  0  0  0  0  0  0999 V2000
   28.0880    9.7540  -11.2580 C   0  0  0  0  0  0  0  0  0  0  0  0
   28.8160    8.5720  -11.3520 C   0  0  0  0  0  0  0  0  0  0  0  0
   28.3980    7.3940  -10.7030 N   0  0  0  0  0  0  0  0  0  0  0  0
   26.8690    9.7120  -10.6050 N   0  0  0  0  0  0  0  0  0  0  0  0
   26.4140    8.5540   -9.9860 C   0  0  0  0  0  0  0  0  0  0  0  0
   27.1790    7.3950  -10.0350 C   0  0  0  0  0  0  0  0  0  0  0  0
   26.7730    6.3570   -9.4800 O   0  0  0  0  0  0  0  0  0  0  0  0
   30.0060    8.5450  -12.0680 N   0  0  0  0  0  0  0  0  0  0  0  0
   30.4680    9.6960  -12.6930 C   0  0  0  0  0  0  0  0  0  0  0  0
   29.7410   10.8770  -12.6000 C   0  0  0  0  0  0  0  0  0  0  0  0
   28.5470   10.8990  -11.8700 C   0  0  0  0  0  0  0  0  0  0  0  0
   30.2360   12.1280  -13.2810 C   0  0  1  0  0  0  0  0  0  0  0  0
   28.9846    6.5476  -10.7230 H   0  0  0  0  0  0  0  0  0  0  0  0
   25.4492    8.5548   -9.4577 H   0  0  0  0  0  0  0  0  0  0  0  0
   31.4093    9.6730  -13.2617 H   0  0  0  0  0  0  0  0  0  0  0  0
   27.9735   11.8338  -11.7849 H   0  0  0  0  0  0  0  0  0  0  0  0
   30.5287   12.8677  -12.5213 H   0  0  0  0  0  0  0  0  0  0  0  0
   31.1053   11.8840  -13.9092 H   0  0  0  0  0  0  0  0  0  0  0  0
   29.4351   12.5449  -13.9092 H   0  0  0  0  0  0  0  0  0  0  0  0
  1 11  1  0
  1  2  2  0
  1  4  1  0
  2  8  1  0
  2  3  1  0
  3  6  1  0
  4  5  2  0
  5  6  1  0
  6  7  2  0
  8  9  2  0
  9 10  1  0
 10 12  1  0
 10 11  2  0
  3 13  1  0
  5 14  1  0
  9 15  1  0
 11 16  1  0
 12 17  1  1
 12 18  1  0
 12 19  1  0
M  END
>  <Pose ID>  (595)
143

>  <Score>  (595)
-5.112172603607178

>  <smiles>  (595)
Cc1cnc2[nH]c(=O)cnc2c1

$$$$

     RDKit          3D

 38 41  0  0  0  0  0  0  0  0999 V2000
   27.4490    7.7150   -9.7140 C   0  0  0  0  0  0  0  0  0  0  0  0
   26.7050    6.7890   -8.9950 N   0  0  0  0  0  0  0  0  0  0  0  0
   25.9810    7.1950   -7.8800 C   0  0  0  0  0  0  0  0  0  0  0  0
   25.3080    6.2100   -7.2110 C   0  0  0  0  0  0  0  0  0  0  0  0
   24.5420    6.5090   -6.0920 N   0  0  0  0  0  0  0  0  0  0  0  0
   24.4590    7.8170   -5.6330 C   0  0  0  0  0  0  0  0  0  0  0  0
   25.1450    8.8310   -6.2940 C   0  0  0  0  0  0  0  0  0  0  0  0
   25.9990    8.5290   -7.4880 C   0  0  0  0  0  0  0  0  0  0  0  0
   27.4690    9.0490   -9.3210 C   0  0  0  0  0  0  0  0  0  0  0  0
   26.7440    9.4560   -8.2090 C   0  0  0  0  0  0  0  0  0  0  0  0
   28.2340    7.5630  -10.8320 N   0  0  0  0  0  0  0  0  0  0  0  0
   28.9440    8.3980  -11.4850 C   0  0  0  0  0  0  0  0  0  0  0  0
   30.3380    8.3820  -11.6440 N   0  0  0  0  0  0  0  0  0  0  0  0
   30.6380    9.4550  -12.3840 O   0  0  0  0  0  0  0  0  0  0  0  0
   29.5860   10.1190  -12.7060 C   0  0  0  0  0  0  0  0  0  0  0  0
   28.4750    9.4570  -12.1820 C   0  0  0  0  0  0  0  0  0  0  0  0
   23.6810    8.1160   -4.5000 C   0  0  0  0  0  0  0  0  0  0  0  0
   22.4310    8.5730   -4.4880 N   0  0  0  0  0  0  0  0  0  0  0  0
   24.1180    7.9420   -3.1780 C   0  0  0  0  0  0  0  0  0  0  0  0
   22.0750    8.6900   -3.1510 C   0  0  0  0  0  0  0  0  0  0  0  0
   23.3230    8.2570   -2.3260 C   0  0  0  0  0  0  0  0  0  0  0  0
   21.5370    8.9060   -5.6350 C   0  0  1  0  0  0  0  0  0  0  0  0
   25.0280   10.2530   -5.8020 C   0  0  1  0  0  0  0  0  0  0  0  0
   25.3742    5.1700   -7.5631 H   0  0  0  0  0  0  0  0  0  0  0  0
   28.0592    9.7816   -9.8911 H   0  0  0  0  0  0  0  0  0  0  0  0
   26.7589   10.5111   -7.8984 H   0  0  0  0  0  0  0  0  0  0  0  0
   28.2523    6.6049  -11.2096 H   0  0  0  0  0  0  0  0  0  0  0  0
   29.5649   11.0488  -13.2934 H   0  0  0  0  0  0  0  0  0  0  0  0
   27.4205    9.7421  -12.3112 H   0  0  0  0  0  0  0  0  0  0  0  0
   25.1152    7.5463   -2.9350 H   0  0  0  0  0  0  0  0  0  0  0  0
   21.1046    9.0224   -2.7536 H   0  0  0  0  0  0  0  0  0  0  0  0
   23.4492    8.2419   -1.2334 H   0  0  0  0  0  0  0  0  0  0  0  0
   20.5701    9.2662   -5.2537 H   0  0  0  0  0  0  0  0  0  0  0  0
   22.0044    9.6903   -6.2485 H   0  0  0  0  0  0  0  0  0  0  0  0
   21.3774    8.0070   -6.2485 H   0  0  0  0  0  0  0  0  0  0  0  0
   25.0273   10.2615   -4.7020 H   0  0  0  0  0  0  0  0  0  0  0  0
   25.8808   10.8406   -6.1727 H   0  0  0  0  0  0  0  0  0  0  0  0
   24.0906   10.6933   -6.1727 H   0  0  0  0  0  0  0  0  0  0  0  0
  1 11  1  0
  1  9  1  0
  1  2  2  0
  2  3  1  0
  3  8  2  0
  3  4  1  0
  4  5  2  0
  5  6  1  0
  6  7  2  0
  6 17  1  0
  7  8  1  0
  7 23  1  0
  8 10  1  0
  9 10  2  0
 11 12  1  0
 12 16  1  0
 12 13  2  0
 13 14  1  0
 14 15  1  0
 15 16  2  0
 17 18  1  0
 17 19  2  0
 18 22  1  0
 18 20  1  0
 19 21  1  0
 20 21  2  0
  4 24  1  0
  9 25  1  0
 10 26  1  0
 11 27  1  0
 15 28  1  0
 16 29  1  0
 19 30  1  0
 20 31  1  0
 21 32  1  0
 22 33  1  1
 22 34  1  0
 22 35  1  0
 23 36  1  1
 23 37  1  0
 23 38  1  0
M  END
>  <Pose ID>  (596)
30

>  <Score>  (596)
-5.107550144195557

>  <smiles>  (596)
Cc1c(-c2cccn2C)ncc2nc(Nc3ccon3)ccc12

$$$$

     RDKit          3D

 37 39  0  0  0  0  0  0  0  0999 V2000
   27.8070    7.8660   -9.7760 C   0  0  0  0  0  0  0  0  0  0  0  0
   26.9430    6.7820   -9.7400 N   0  0  0  0  0  0  0  0  0  0  0  0
   26.1710    6.5400   -8.6100 C   0  0  0  0  0  0  0  0  0  0  0  0
   27.8990    8.7160   -8.6750 N   0  0  0  0  0  0  0  0  0  0  0  0
   26.2660    7.3890   -7.5120 C   0  0  0  0  0  0  0  0  0  0  0  0
   27.0470    8.4530   -7.5380 C   0  0  0  0  0  0  0  0  0  0  0  0
   28.4990    8.0830  -10.7860 O   0  0  0  0  0  0  0  0  0  0  0  0
   25.5370    7.1140   -6.3800 N   0  0  0  0  0  0  0  0  0  0  0  0
   24.2440    7.6130   -6.1060 C   0  0  0  0  0  0  0  0  0  0  0  0
   23.1390    6.8410   -5.7650 N   0  0  0  0  0  0  0  0  0  0  0  0
   21.9160    7.4530   -5.5120 C   0  0  0  0  0  0  0  0  0  0  0  0
   21.8010    8.8360   -5.6000 C   0  0  0  0  0  0  0  0  0  0  0  0
   22.9060    9.6060   -5.9390 C   0  0  0  0  0  0  0  0  0  0  0  0
   24.1340    8.9920   -6.1650 C   0  0  0  0  0  0  0  0  0  0  0  0
   20.4770    9.2060   -5.2990 C   0  0  0  0  0  0  0  0  0  0  0  0
   19.3540    8.7910   -5.7730 N   0  0  0  0  0  0  0  0  0  0  0  0
   18.3730    9.4940   -5.0570 O   0  0  0  0  0  0  0  0  0  0  0  0
   20.2650   10.2260   -4.2260 C   0  0  0  0  0  0  0  0  0  0  0  0
   18.7710   10.3200   -4.2260 C   0  0  0  0  0  0  0  0  0  0  0  0
   17.9210   11.2380   -3.3830 C   0  0  1  0  0  0  0  0  0  0  0  0
   21.2770   10.9580   -3.3780 C   0  0  1  0  0  0  0  0  0  0  0  0
   18.3650   12.6890   -3.4870 C   0  0  1  0  0  0  0  0  0  0  0  0
   25.4865    5.6793   -8.5838 H   0  0  0  0  0  0  0  0  0  0  0  0
   28.5559    9.5093   -8.6721 H   0  0  0  0  0  0  0  0  0  0  0  0
   27.0492    9.1471   -6.6846 H   0  0  0  0  0  0  0  0  0  0  0  0
   25.9666    6.4961   -5.6767 H   0  0  0  0  0  0  0  0  0  0  0  0
   21.0407    6.8437   -5.2426 H   0  0  0  0  0  0  0  0  0  0  0  0
   22.8107   10.6982   -6.0286 H   0  0  0  0  0  0  0  0  0  0  0  0
   25.0198    9.6038   -6.3911 H   0  0  0  0  0  0  0  0  0  0  0  0
   16.8765   11.1622   -3.7197 H   0  0  0  0  0  0  0  0  0  0  0  0
   18.0269   10.9269   -2.3332 H   0  0  0  0  0  0  0  0  0  0  0  0
   21.0508   10.7944   -2.3140 H   0  0  0  0  0  0  0  0  0  0  0  0
   22.2852   10.5788   -3.6010 H   0  0  0  0  0  0  0  0  0  0  0  0
   21.2324   12.0342   -3.6010 H   0  0  0  0  0  0  0  0  0  0  0  0
   18.4928   13.1066   -2.4774 H   0  0  0  0  0  0  0  0  0  0  0  0
   19.3205   12.7421   -4.0294 H   0  0  0  0  0  0  0  0  0  0  0  0
   17.6028   13.2677   -4.0294 H   0  0  0  0  0  0  0  0  0  0  0  0
  8  5  1  0
  8  9  1  0
  9 14  1  0
  9 10  2  0
 10 11  1  0
 11 12  2  0
 12 13  1  0
 12 15  1  0
 13 14  2  0
  1  7  2  0
  1  2  1  0
  1  4  1  0
  2  3  2  0
  3  5  1  0
  4  6  1  0
  5  6  2  0
 15 16  2  0
 15 18  1  0
 16 17  1  0
 17 19  1  0
 18 19  2  0
 18 21  1  0
 19 20  1  0
 20 22  1  0
  3 23  1  0
  4 24  1  0
  6 25  1  0
  8 26  1  0
 11 27  1  0
 13 28  1  0
 14 29  1  0
 20 30  1  6
 20 31  1  0
 21 32  1  1
 21 33  1  0
 21 34  1  0
 22 35  1  1
 22 36  1  0
 22 37  1  0
M  END
>  <Pose ID>  (597)
122

>  <Score>  (597)
-5.10478401184082

>  <smiles>  (597)
CCc1onc(-c2ccc(Nc3cnc(=O)[nH]c3)nc2)c1C

$$$$

     RDKit          3D

 31 34  0  0  0  0  0  0  0  0999 V2000
   27.7540    7.7280  -10.2020 C   0  0  0  0  0  0  0  0  0  0  0  0
   28.6380    7.0600  -11.0400 C   0  0  0  0  0  0  0  0  0  0  0  0
   29.4010    7.7750  -11.9560 N   0  0  0  0  0  0  0  0  0  0  0  0
   29.2800    9.1570  -12.0340 C   0  0  0  0  0  0  0  0  0  0  0  0
   27.0340    6.8380   -9.2950 O   0  0  0  0  0  0  0  0  0  0  0  0
   28.3920    9.8260  -11.1940 C   0  0  0  0  0  0  0  0  0  0  0  0
   27.6330    9.1100  -10.2790 C   0  0  0  0  0  0  0  0  0  0  0  0
   29.9000   10.0550  -12.8250 N   0  0  0  0  0  0  0  0  0  0  0  0
   29.4270   11.3130  -12.5220 C   0  0  0  0  0  0  0  0  0  0  0  0
   28.5010   10.9990  -11.5030 C   0  0  0  0  0  0  0  0  0  0  0  0
   26.3190    7.2700   -8.1720 C   0  0  0  0  0  0  0  0  0  0  0  0
   25.4850    8.3640   -8.3390 N   0  0  0  0  0  0  0  0  0  0  0  0
   24.9360    8.6240   -7.1740 N   0  0  0  0  0  0  0  0  0  0  0  0
   25.3120    7.7680   -6.1460 C   0  0  0  0  0  0  0  0  0  0  0  0
   26.1820    6.9130   -6.8420 C   0  0  0  0  0  0  0  0  0  0  0  0
   24.0320    9.6510   -6.9270 C   0  0  0  0  0  0  0  0  0  0  0  0
   23.5050    9.8230   -5.6530 C   0  0  0  0  0  0  0  0  0  0  0  0
   23.8820    8.9660   -4.6250 C   0  0  0  0  0  0  0  0  0  0  0  0
   24.7840    7.9390   -4.8720 N   0  0  0  0  0  0  0  0  0  0  0  0
   22.5240   10.9370   -5.3860 C   0  0  1  0  0  0  0  0  0  0  0  0
   28.7341    5.9659  -10.9787 H   0  0  0  0  0  0  0  0  0  0  0  0
   30.0565    7.2799  -12.5774 H   0  0  0  0  0  0  0  0  0  0  0  0
   26.9341    9.6377   -9.6133 H   0  0  0  0  0  0  0  0  0  0  0  0
   29.6954   12.2888  -12.9531 H   0  0  0  0  0  0  0  0  0  0  0  0
   27.9040   11.7801  -11.0097 H   0  0  0  0  0  0  0  0  0  0  0  0
   26.6964    6.0564   -6.3820 H   0  0  0  0  0  0  0  0  0  0  0  0
   23.7337   10.3280   -7.7410 H   0  0  0  0  0  0  0  0  0  0  0  0
   23.4658    9.1014   -3.6158 H   0  0  0  0  0  0  0  0  0  0  0  0
   22.4068   11.0700   -4.3004 H   0  0  0  0  0  0  0  0  0  0  0  0
   22.8989   11.8703   -5.8314 H   0  0  0  0  0  0  0  0  0  0  0  0
   21.5508   10.6832   -5.8314 H   0  0  0  0  0  0  0  0  0  0  0  0
  5  1  1  0
  5 11  1  0
  1  2  2  0
  1  7  1  0
  2  3  1  0
  3  4  1  0
  4  8  2  0
  4  6  1  0
  6 10  1  0
  6  7  2  0
  8  9  1  0
  9 10  2  0
 11 12  2  0
 11 15  1  0
 12 13  1  0
 13 16  1  0
 13 14  1  0
 14 15  2  0
 14 19  1  0
 16 17  2  0
 17 20  1  0
 17 18  1  0
 18 19  2  0
  2 21  1  0
  3 22  1  0
  7 23  1  0
  9 24  1  0
 10 25  1  0
 15 26  1  0
 16 27  1  0
 18 28  1  0
 20 29  1  1
 20 30  1  0
 20 31  1  0
M  END
>  <Pose ID>  (598)
355

>  <Score>  (598)
-5.093167781829834

>  <smiles>  (598)
Cc1cnc2cc(Oc3c[nH]c4nccc-4c3)nn2c1

$$$$

     RDKit          3D

 28 30  0  0  0  0  0  0  0  0999 V2000
   27.5800    7.9920   -9.7000 C   0  0  0  0  0  0  0  0  0  0  0  0
   26.8510    7.0480   -8.9880 N   0  0  0  0  0  0  0  0  0  0  0  0
   26.0920    7.4370   -7.8940 C   0  0  0  0  0  0  0  0  0  0  0  0
   26.0590    8.7720   -7.5100 C   0  0  0  0  0  0  0  0  0  0  0  0
   25.3160    9.1070   -6.3510 C   0  0  0  0  0  0  0  0  0  0  0  0
   24.6050    8.1310   -5.6610 C   0  0  0  0  0  0  0  0  0  0  0  0
   24.6380    6.8120   -6.0980 C   0  0  0  0  0  0  0  0  0  0  0  0
   25.3750    6.4680   -7.2210 C   0  0  0  0  0  0  0  0  0  0  0  0
   27.5490    9.3270   -9.3160 C   0  0  0  0  0  0  0  0  0  0  0  0
   26.7890    9.7180   -8.2200 C   0  0  0  0  0  0  0  0  0  0  0  0
   28.3310    7.6080  -10.7830 N   0  0  0  0  0  0  0  0  0  0  0  0
   29.0980    8.4120  -11.5130 C   0  0  0  0  0  0  0  0  0  0  0  0
   30.4870    8.2780  -11.6690 N   0  0  0  0  0  0  0  0  0  0  0  0
   30.8350    9.3010  -12.4600 O   0  0  0  0  0  0  0  0  0  0  0  0
   29.8380   10.0210  -12.8070 C   0  0  0  0  0  0  0  0  0  0  0  0
   28.6880    9.4540  -12.2420 C   0  0  0  0  0  0  0  0  0  0  0  0
   25.2950   10.5340   -5.8620 C   0  0  1  0  0  0  0  0  0  0  0  0
   24.0178    8.4024   -4.7713 H   0  0  0  0  0  0  0  0  0  0  0  0
   24.0779    6.0389   -5.5515 H   0  0  0  0  0  0  0  0  0  0  0  0
   25.3883    5.4264   -7.5745 H   0  0  0  0  0  0  0  0  0  0  0  0
   28.1262   10.0747   -9.8797 H   0  0  0  0  0  0  0  0  0  0  0  0
   26.7653   10.7746   -7.9149 H   0  0  0  0  0  0  0  0  0  0  0  0
   28.2975    6.6144  -11.0525 H   0  0  0  0  0  0  0  0  0  0  0  0
   29.8757   10.9229  -13.4356 H   0  0  0  0  0  0  0  0  0  0  0  0
   27.6517    9.7988  -12.3728 H   0  0  0  0  0  0  0  0  0  0  0  0
   25.2948   10.5447   -4.7621 H   0  0  0  0  0  0  0  0  0  0  0  0
   26.1855   11.0621   -6.2337 H   0  0  0  0  0  0  0  0  0  0  0  0
   24.3894   11.0357   -6.2337 H   0  0  0  0  0  0  0  0  0  0  0  0
  1 11  1  0
  1  9  1  0
  1  2  2  0
  2  3  1  0
  3  4  2  0
  3  8  1  0
  4 10  1  0
  4  5  1  0
  5 17  1  0
  5  6  2  0
  6  7  1  0
  7  8  2  0
  9 10  2  0
 11 12  1  0
 12 16  1  0
 12 13  2  0
 13 14  1  0
 14 15  1  0
 15 16  2  0
  6 18  1  0
  7 19  1  0
  8 20  1  0
  9 21  1  0
 10 22  1  0
 11 23  1  0
 15 24  1  0
 16 25  1  0
 17 26  1  1
 17 27  1  0
 17 28  1  0
M  END
>  <Pose ID>  (599)
10

>  <Score>  (599)
-5.090198993682861

>  <smiles>  (599)
Cc1cccc2nc(Nc3ccon3)ccc12

$$$$

     RDKit          3D

 33 36  0  0  0  0  0  0  0  0999 V2000
   27.6750    7.7990  -10.2210 C   0  0  0  0  0  0  0  0  0  0  0  0
   28.4760    7.0850  -11.1030 C   0  0  0  0  0  0  0  0  0  0  0  0
   29.2920    7.7610  -12.0030 N   0  0  0  0  0  0  0  0  0  0  0  0
   29.3080    9.1500  -12.0180 C   0  0  0  0  0  0  0  0  0  0  0  0
   26.8860    6.9440   -9.3370 O   0  0  0  0  0  0  0  0  0  0  0  0
   28.5070    9.8660  -11.1340 C   0  0  0  0  0  0  0  0  0  0  0  0
   27.6930    9.1880  -10.2340 C   0  0  0  0  0  0  0  0  0  0  0  0
   30.0020   10.0180  -12.7830 N   0  0  0  0  0  0  0  0  0  0  0  0
   29.6620   11.3000  -12.4160 C   0  0  0  0  0  0  0  0  0  0  0  0
   28.7260   11.0360  -11.3930 C   0  0  0  0  0  0  0  0  0  0  0  0
   26.2370    7.3950   -8.1830 C   0  0  0  0  0  0  0  0  0  0  0  0
   25.5130    8.5710   -8.2840 N   0  0  0  0  0  0  0  0  0  0  0  0
   24.9830    8.8540   -7.0380 N   0  0  0  0  0  0  0  0  0  0  0  0
   25.3480    7.8810   -6.1920 C   0  0  0  0  0  0  0  0  0  0  0  0
   26.0860    6.9930   -6.8660 C   0  0  0  0  0  0  0  0  0  0  0  0
   24.2220    9.9380   -6.7540 C   0  0  0  0  0  0  0  0  0  0  0  0
   24.7420   11.1920   -7.0520 C   0  0  0  0  0  0  0  0  0  0  0  0
   23.1180    9.8250   -5.9160 C   0  0  0  0  0  0  0  0  0  0  0  0
   22.5370   10.9660   -5.3770 C   0  0  0  0  0  0  0  0  0  0  0  0
   23.0570   12.2200   -5.6750 C   0  0  0  0  0  0  0  0  0  0  0  0
   24.1530   12.3310   -6.5080 N   0  0  0  0  0  0  0  0  0  0  0  0
   22.5360   13.2420   -5.1910 O   0  0  0  0  0  0  0  0  0  0  0  0
   28.4647    5.9851  -11.0894 H   0  0  0  0  0  0  0  0  0  0  0  0
   29.8846    7.2320  -12.6586 H   0  0  0  0  0  0  0  0  0  0  0  0
   27.0623    9.7521   -9.5312 H   0  0  0  0  0  0  0  0  0  0  0  0
   30.0200   12.2625  -12.8102 H   0  0  0  0  0  0  0  0  0  0  0  0
   28.2177   11.8494  -10.8544 H   0  0  0  0  0  0  0  0  0  0  0  0
   25.0853    7.8228   -5.1254 H   0  0  0  0  0  0  0  0  0  0  0  0
   26.5123    6.0746   -6.4362 H   0  0  0  0  0  0  0  0  0  0  0  0
   25.6151   11.2846   -7.7147 H   0  0  0  0  0  0  0  0  0  0  0  0
   22.7051    8.8331   -5.6801 H   0  0  0  0  0  0  0  0  0  0  0  0
   21.6642   10.8769   -4.7135 H   0  0  0  0  0  0  0  0  0  0  0  0
   24.5369   13.2611   -6.7282 H   0  0  0  0  0  0  0  0  0  0  0  0
 11  5  1  0
 11 12  2  0
 11 15  1  0
 12 13  1  0
 13 16  1  0
 13 14  1  0
 14 15  2  0
 16 17  2  0
 16 18  1  0
 17 21  1  0
 18 19  2  0
 19 20  1  0
 20 21  1  0
 20 22  2  0
  5  1  1  0
  1  2  2  0
  1  7  1  0
  2  3  1  0
  3  4  1  0
  4  8  2  0
  4  6  1  0
  6 10  1  0
  6  7  2  0
  8  9  1  0
  9 10  2  0
  2 23  1  0
  3 24  1  0
  7 25  1  0
  9 26  1  0
 10 27  1  0
 14 28  1  0
 15 29  1  0
 17 30  1  0
 18 31  1  0
 19 32  1  0
 21 33  1  0
M  END
>  <Pose ID>  (600)
463

>  <Score>  (600)
-5.085197925567627

>  <smiles>  (600)
O=c1ccc(-n2ccc(Oc3c[nH]c4nccc-4c3)n2)c[nH]1

$$$$

     RDKit          3D

 29 31  0  0  0  0  0  0  0  0999 V2000
   28.6850    9.4910  -11.9500 C   0  0  0  0  0  0  0  0  0  0  0  0
   29.2210    8.2210  -11.8380 C   0  0  0  0  0  0  0  0  0  0  0  0
   28.6290    7.2930  -10.9880 N   0  0  0  0  0  0  0  0  0  0  0  0
   27.5170    7.6470  -10.2360 C   0  0  0  0  0  0  0  0  0  0  0  0
   27.5820    9.8600  -11.1820 C   0  0  0  0  0  0  0  0  0  0  0  0
   26.9920    8.9290  -10.3330 C   0  0  0  0  0  0  0  0  0  0  0  0
   26.7840    6.9350   -9.3590 N   0  0  0  0  0  0  0  0  0  0  0  0
   25.7780    7.7370   -8.8690 C   0  0  0  0  0  0  0  0  0  0  0  0
   26.0500    8.9390   -9.5610 C   0  0  0  0  0  0  0  0  0  0  0  0
   24.7370    7.6230   -7.9820 N   0  0  0  0  0  0  0  0  0  0  0  0
   24.6720    8.2800   -6.7450 C   0  0  0  0  0  0  0  0  0  0  0  0
   24.1240    9.5560   -6.6830 C   0  0  0  0  0  0  0  0  0  0  0  0
   24.0530   10.2220   -5.4650 C   0  0  0  0  0  0  0  0  0  0  0  0
   24.5290    9.6140   -4.3110 C   0  0  0  0  0  0  0  0  0  0  0  0
   25.0780    8.3380   -4.3730 N   0  0  0  0  0  0  0  0  0  0  0  0
   25.1480    7.6720   -5.5910 C   0  0  0  0  0  0  0  0  0  0  0  0
   25.7430    6.2870   -5.6600 C   0  0  1  0  0  0  0  0  0  0  0  0
   29.1315   10.2137  -12.6488 H   0  0  0  0  0  0  0  0  0  0  0  0
   30.1131    7.9456  -12.4196 H   0  0  0  0  0  0  0  0  0  0  0  0
   29.0163    6.3413  -10.9163 H   0  0  0  0  0  0  0  0  0  0  0  0
   27.1801   10.8819  -11.2468 H   0  0  0  0  0  0  0  0  0  0  0  0
   25.4395    9.8414   -9.4094 H   0  0  0  0  0  0  0  0  0  0  0  0
   23.9493    7.0128   -8.2429 H   0  0  0  0  0  0  0  0  0  0  0  0
   23.7469   10.0382   -7.5969 H   0  0  0  0  0  0  0  0  0  0  0  0
   23.6193   11.2317   -5.4153 H   0  0  0  0  0  0  0  0  0  0  0  0
   24.4718   10.1418   -3.3476 H   0  0  0  0  0  0  0  0  0  0  0  0
   25.9063    5.9069   -4.6408 H   0  0  0  0  0  0  0  0  0  0  0  0
   25.0530    5.6177   -6.1948 H   0  0  0  0  0  0  0  0  0  0  0  0
   26.7034    6.3268   -6.1948 H   0  0  0  0  0  0  0  0  0  0  0  0
  1  2  2  0
  1  5  1  0
  2  3  1  0
  3  4  1  0
  4  6  1  0
  4  7  2  0
  5  6  2  0
  6  9  1  0
  7  8  1  0
  8  9  2  0
  8 10  1  0
 10 11  1  0
 11 12  2  0
 11 16  1  0
 12 13  1  0
 13 14  2  0
 14 15  1  0
 15 16  2  0
 16 17  1  0
  1 18  1  0
  2 19  1  0
  3 20  1  0
  5 21  1  0
  9 22  1  0
 10 23  1  0
 12 24  1  0
 13 25  1  0
 14 26  1  0
 17 27  1  1
 17 28  1  0
 17 29  1  0
M  END
>  <Pose ID>  (601)
197

>  <Score>  (601)
-5.084591865539551

>  <smiles>  (601)
Cc1ncccc1Nc1cc2ccc[nH]c-2n1

$$$$

     RDKit          3D

 40 42  0  0  0  0  0  0  0  0999 V2000
   28.4880   10.3140  -12.0360 C   0  0  0  0  0  0  0  0  0  0  0  0
   29.4800    9.3480  -11.9160 C   0  0  0  0  0  0  0  0  0  0  0  0
   29.2960    8.1800  -11.1890 N   0  0  0  0  0  0  0  0  0  0  0  0
   28.0610    7.9450  -10.5960 C   0  0  0  0  0  0  0  0  0  0  0  0
   27.0350    8.8720  -10.7310 C   0  0  0  0  0  0  0  0  0  0  0  0
   27.2390   10.0200  -11.4720 C   0  0  0  0  0  0  0  0  0  0  0  0
   27.8730    6.9020   -9.9480 O   0  0  0  0  0  0  0  0  0  0  0  0
   30.7250    9.5600  -12.5010 N   0  0  0  0  0  0  0  0  0  0  0  0
   30.9740   10.7300  -13.2050 C   0  0  0  0  0  0  0  0  0  0  0  0
   29.9780   11.6930  -13.3240 C   0  0  0  0  0  0  0  0  0  0  0  0
   28.7320   11.4800  -12.7270 C   0  0  0  0  0  0  0  0  0  0  0  0
   25.7540    8.8780  -10.2360 N   0  0  0  0  0  0  0  0  0  0  0  0
   25.4710    8.8260   -8.7820 C   0  0  0  0  0  0  0  0  0  0  0  0
   25.0440    7.6220   -8.2300 C   0  0  0  0  0  0  0  0  0  0  0  0
   24.7710    7.5370   -6.8710 C   0  0  0  0  0  0  0  0  0  0  0  0
   24.9260    8.6560   -6.0600 C   0  0  0  0  0  0  0  0  0  0  0  0
   25.3500    9.8590   -6.6110 C   0  0  0  0  0  0  0  0  0  0  0  0
   25.6230    9.9440   -7.9700 C   0  0  0  0  0  0  0  0  0  0  0  0
   25.5010   10.9580   -5.8120 N   0  0  0  0  0  0  0  0  0  0  0  0
   26.5060   11.9770   -6.1450 C   0  0  1  0  0  0  0  0  0  0  0  0
   25.2620   11.1310   -4.3910 C   0  0  1  0  0  0  0  0  0  0  0  0
   27.6540   12.5290  -12.8410 C   0  0  1  0  0  0  0  0  0  0  0  0
   30.0621    7.4986  -11.0905 H   0  0  0  0  0  0  0  0  0  0  0  0
   26.4028   10.7187  -11.6227 H   0  0  0  0  0  0  0  0  0  0  0  0
   31.9580   10.8952  -13.6682 H   0  0  0  0  0  0  0  0  0  0  0  0
   30.1698   12.6190  -13.8858 H   0  0  0  0  0  0  0  0  0  0  0  0
   24.9646    8.9200  -10.8963 H   0  0  0  0  0  0  0  0  0  0  0  0
   24.9225    6.7364   -8.8710 H   0  0  0  0  0  0  0  0  0  0  0  0
   24.4323    6.5850   -6.4363 H   0  0  0  0  0  0  0  0  0  0  0  0
   24.7131    8.5888   -4.9829 H   0  0  0  0  0  0  0  0  0  0  0  0
   25.9598   10.8969   -8.4043 H   0  0  0  0  0  0  0  0  0  0  0  0
   26.9218   12.3986   -5.2180 H   0  0  0  0  0  0  0  0  0  0  0  0
   27.3137   11.5169   -6.7331 H   0  0  0  0  0  0  0  0  0  0  0  0
   26.0348   12.7783   -6.7331 H   0  0  0  0  0  0  0  0  0  0  0  0
   26.0242   10.5793   -3.8212 H   0  0  0  0  0  0  0  0  0  0  0  0
   25.3170   12.2000   -4.1374 H   0  0  0  0  0  0  0  0  0  0  0  0
   24.2637   10.7449   -4.1374 H   0  0  0  0  0  0  0  0  0  0  0  0
   27.3358   12.8386  -11.8346 H   0  0  0  0  0  0  0  0  0  0  0  0
   28.0464   13.4003  -13.3858 H   0  0  0  0  0  0  0  0  0  0  0  0
   26.7937   12.1130  -13.3858 H   0  0  0  0  0  0  0  0  0  0  0  0
  1 11  1  0
  1  2  2  0
  1  6  1  0
  2  8  1  0
  2  3  1  0
  3  4  1  0
  4  5  1  0
  4  7  2  0
  5  6  2  0
  5 12  1  0
  8  9  2  0
  9 10  1  0
 10 11  2  0
 11 22  1  0
 12 13  1  0
 13 14  2  0
 13 18  1  0
 14 15  1  0
 15 16  2  0
 16 17  1  0
 17 18  2  0
 17 19  1  0
 19 20  1  0
 19 21  1  0
  3 23  1  0
  6 24  1  0
  9 25  1  0
 10 26  1  0
 12 27  1  0
 14 28  1  0
 15 29  1  0
 16 30  1  0
 18 31  1  0
 20 32  1  1
 20 33  1  0
 20 34  1  0
 21 35  1  1
 21 36  1  0
 21 37  1  0
 22 38  1  1
 22 39  1  0
 22 40  1  0
M  END
>  <Pose ID>  (602)
186

>  <Score>  (602)
-5.083304405212402

>  <smiles>  (602)
Cc1ccnc2[nH]c(=O)c(Nc3cccc(N(C)C)c3)cc12

$$$$

     RDKit          3D

 16 16  0  0  0  0  0  0  0  0999 V2000
   29.0280    9.6270  -12.1310 C   0  0  0  0  0  0  0  0  0  0  0  0
   29.6330    8.3860  -11.9630 C   0  0  0  0  0  0  0  0  0  0  0  0
   29.0800    7.4560  -11.0880 N   0  0  0  0  0  0  0  0  0  0  0  0
   27.8740    9.9370  -11.4240 C   0  0  0  0  0  0  0  0  0  0  0  0
   27.3010   11.1970  -11.6290 O   0  0  0  0  0  0  0  0  0  0  0  0
   27.9260    7.7680  -10.3810 C   0  0  0  0  0  0  0  0  0  0  0  0
   27.3220    9.0090  -10.5490 C   0  0  0  0  0  0  0  0  0  0  0  0
   27.4320    6.9360   -9.5980 O   0  0  0  0  0  0  0  0  0  0  0  0
   26.8760   11.6860  -12.9490 C   0  0  1  0  0  0  0  0  0  0  0  0
   29.4635   10.3624  -12.8235 H   0  0  0  0  0  0  0  0  0  0  0  0
   30.5481    8.1398  -12.5215 H   0  0  0  0  0  0  0  0  0  0  0  0
   29.5266    6.5361  -10.9646 H   0  0  0  0  0  0  0  0  0  0  0  0
   26.4077    9.2562   -9.9896 H   0  0  0  0  0  0  0  0  0  0  0  0
   26.1593   12.5106  -12.8212 H   0  0  0  0  0  0  0  0  0  0  0  0
   27.7533   12.0458  -13.5066 H   0  0  0  0  0  0  0  0  0  0  0  0
   26.3975   10.8674  -13.5066 H   0  0  0  0  0  0  0  0  0  0  0  0
  1  2  2  0
  1  4  1  0
  2  3  1  0
  3  6  1  0
  4  5  1  0
  4  7  2  0
  6  7  1  0
  6  8  2  0
  5  9  1  0
  1 10  1  0
  2 11  1  0
  3 12  1  0
  7 13  1  0
  9 14  1  1
  9 15  1  0
  9 16  1  0
M  END
>  <Pose ID>  (603)
10

>  <Score>  (603)
-5.073887348175049

>  <smiles>  (603)
COc1cc[nH]c(=O)c1

$$$$

     RDKit          3D

 23 25  0  0  0  0  0  0  0  0999 V2000
   27.5440    7.8800   -9.6820 C   0  0  0  0  0  0  0  0  0  0  0  0
   26.8430    6.8840   -9.0140 N   0  0  0  0  0  0  0  0  0  0  0  0
   26.1390    7.1870   -7.8530 C   0  0  0  0  0  0  0  0  0  0  0  0
   25.2240    6.2270   -7.4500 C   0  0  0  0  0  0  0  0  0  0  0  0
   24.4040    6.4430   -6.3500 N   0  0  0  0  0  0  0  0  0  0  0  0
   24.4500    7.6600   -5.6790 C   0  0  0  0  0  0  0  0  0  0  0  0
   25.3150    8.6590   -6.1080 C   0  0  0  0  0  0  0  0  0  0  0  0
   26.1380    8.4870   -7.3620 C   0  0  0  0  0  0  0  0  0  0  0  0
   27.5420    9.1790   -9.1910 C   0  0  0  0  0  0  0  0  0  0  0  0
   26.8360    9.4840   -8.0290 C   0  0  0  0  0  0  0  0  0  0  0  0
   28.2380    7.5800  -10.8270 N   0  0  0  0  0  0  0  0  0  0  0  0
   28.9750    8.4360  -11.5270 C   0  0  0  0  0  0  0  0  0  0  0  0
   30.3530    8.3090  -11.7630 N   0  0  0  0  0  0  0  0  0  0  0  0
   30.6710    9.3920  -12.4840 O   0  0  0  0  0  0  0  0  0  0  0  0
   29.6640   10.1440  -12.7200 C   0  0  0  0  0  0  0  0  0  0  0  0
   28.5810    9.5660  -12.1260 N   0  0  0  0  0  0  0  0  0  0  0  0
   25.1463    5.2824   -8.0083 H   0  0  0  0  0  0  0  0  0  0  0  0
   23.8009    7.8320   -4.8077 H   0  0  0  0  0  0  0  0  0  0  0  0
   25.4014    9.5883   -5.5258 H   0  0  0  0  0  0  0  0  0  0  0  0
   28.0979    9.9674   -9.7195 H   0  0  0  0  0  0  0  0  0  0  0  0
   26.8319   10.5133   -7.6410 H   0  0  0  0  0  0  0  0  0  0  0  0
   28.1832    6.6112  -11.1725 H   0  0  0  0  0  0  0  0  0  0  0  0
   29.6702   11.0819  -13.2948 H   0  0  0  0  0  0  0  0  0  0  0  0
  1 11  1  0
  1  9  1  0
  1  2  2  0
  2  3  1  0
  3  4  2  0
  3  8  1  0
  4  5  1  0
  5  6  2  0
  6  7  1  0
  7  8  2  0
  8 10  1  0
  9 10  2  0
 11 12  1  0
 12 16  1  0
 12 13  2  0
 13 14  1  0
 14 15  1  0
 15 16  2  0
  4 17  1  0
  6 18  1  0
  7 19  1  0
  9 20  1  0
 10 21  1  0
 11 22  1  0
 15 23  1  0
M  END
>  <Pose ID>  (604)
2

>  <Score>  (604)
-5.068530559539795

>  <smiles>  (604)
c1cc2ccc(Nc3ncon3)nc2cn1

$$$$

     RDKit          3D

 28 30  0  0  0  0  0  0  0  0999 V2000
   27.5840    7.9720   -9.7170 C   0  0  0  0  0  0  0  0  0  0  0  0
   26.8690    7.0130   -9.0110 N   0  0  0  0  0  0  0  0  0  0  0  0
   26.1040    7.3850   -7.9140 C   0  0  0  0  0  0  0  0  0  0  0  0
   26.0520    8.7170   -7.5220 C   0  0  0  0  0  0  0  0  0  0  0  0
   25.3040    9.0340   -6.3620 C   0  0  0  0  0  0  0  0  0  0  0  0
   24.6080    8.0430   -5.6780 C   0  0  0  0  0  0  0  0  0  0  0  0
   24.6600    6.7280   -6.1220 C   0  0  0  0  0  0  0  0  0  0  0  0
   25.4020    6.4010   -7.2470 C   0  0  0  0  0  0  0  0  0  0  0  0
   27.5330    9.3040   -9.3250 C   0  0  0  0  0  0  0  0  0  0  0  0
   26.7670    9.6780   -8.2270 C   0  0  0  0  0  0  0  0  0  0  0  0
   28.3410    7.6060  -10.8010 N   0  0  0  0  0  0  0  0  0  0  0  0
   29.0960    8.4250  -11.5270 C   0  0  0  0  0  0  0  0  0  0  0  0
   30.4870    8.3120  -11.6840 N   0  0  0  0  0  0  0  0  0  0  0  0
   30.8190    9.3450  -12.4690 O   0  0  0  0  0  0  0  0  0  0  0  0
   29.8110   10.0520  -12.8120 C   0  0  0  0  0  0  0  0  0  0  0  0
   28.6700    9.4650  -12.2500 C   0  0  0  0  0  0  0  0  0  0  0  0
   26.7130   11.1240   -7.7990 C   0  0  1  0  0  0  0  0  0  0  0  0
   25.2732   10.0720   -5.9992 H   0  0  0  0  0  0  0  0  0  0  0  0
   24.0171    8.3003   -4.7866 H   0  0  0  0  0  0  0  0  0  0  0  0
   24.1112    5.9439   -5.5799 H   0  0  0  0  0  0  0  0  0  0  0  0
   25.4311    5.3618   -7.6065 H   0  0  0  0  0  0  0  0  0  0  0  0
   28.0994   10.0634   -9.8841 H   0  0  0  0  0  0  0  0  0  0  0  0
   28.3230    6.6134  -11.0755 H   0  0  0  0  0  0  0  0  0  0  0  0
   29.8351   10.9577  -13.4358 H   0  0  0  0  0  0  0  0  0  0  0  0
   27.6286    9.7951  -12.3785 H   0  0  0  0  0  0  0  0  0  0  0  0
   26.7109   11.1814   -6.7005 H   0  0  0  0  0  0  0  0  0  0  0  0
   27.5919   11.6559   -8.1922 H   0  0  0  0  0  0  0  0  0  0  0  0
   25.7969   11.5888   -8.1922 H   0  0  0  0  0  0  0  0  0  0  0  0
  1 11  1  0
  1  9  1  0
  1  2  2  0
  2  3  1  0
  3  4  2  0
  3  8  1  0
  4 10  1  0
  4  5  1  0
  5  6  2  0
  6  7  1  0
  7  8  2  0
  9 10  2  0
 10 17  1  0
 11 12  1  0
 12 16  1  0
 12 13  2  0
 13 14  1  0
 14 15  1  0
 15 16  2  0
  5 18  1  0
  6 19  1  0
  7 20  1  0
  8 21  1  0
  9 22  1  0
 11 23  1  0
 15 24  1  0
 16 25  1  0
 17 26  1  1
 17 27  1  0
 17 28  1  0
M  END
>  <Pose ID>  (605)
12

>  <Score>  (605)
-5.066087245941162

>  <smiles>  (605)
Cc1cc(Nc2ccon2)nc2ccccc12

$$$$

     RDKit          3D

 28 31  0  0  0  0  0  0  0  0999 V2000
   27.8480    7.8210  -10.2380 C   0  0  0  0  0  0  0  0  0  0  0  0
   28.8360    7.1170  -10.9160 C   0  0  0  0  0  0  0  0  0  0  0  0
   29.6700    7.7770  -11.8090 N   0  0  0  0  0  0  0  0  0  0  0  0
   29.5190    9.1420  -12.0250 C   0  0  0  0  0  0  0  0  0  0  0  0
   27.0630    6.9860   -9.3330 O   0  0  0  0  0  0  0  0  0  0  0  0
   28.5280    9.8470  -11.3480 C   0  0  0  0  0  0  0  0  0  0  0  0
   27.6960    9.1850  -10.4540 C   0  0  0  0  0  0  0  0  0  0  0  0
   30.1920    9.9900  -12.8270 N   0  0  0  0  0  0  0  0  0  0  0  0
   29.6540   11.2500  -12.6910 C   0  0  0  0  0  0  0  0  0  0  0  0
   28.6340   10.9920  -11.7490 C   0  0  0  0  0  0  0  0  0  0  0  0
   26.2200    7.4890   -8.3340 C   0  0  0  0  0  0  0  0  0  0  0  0
   25.3780    8.5300   -8.6840 N   0  0  0  0  0  0  0  0  0  0  0  0
   24.6910    8.8730   -7.5860 N   0  0  0  0  0  0  0  0  0  0  0  0
   25.0290    8.0730   -6.5020 C   0  0  0  0  0  0  0  0  0  0  0  0
   25.9540    7.2440   -6.9990 C   0  0  0  0  0  0  0  0  0  0  0  0
   23.7290    9.8660   -7.4430 C   0  0  0  0  0  0  0  0  0  0  0  0
   23.1060   10.0590   -6.2160 N   0  0  0  0  0  0  0  0  0  0  0  0
   23.4440    9.2580   -5.1310 C   0  0  0  0  0  0  0  0  0  0  0  0
   24.4060    8.2650   -5.2740 C   0  0  0  0  0  0  0  0  0  0  0  0
   28.9574    6.0371  -10.7453 H   0  0  0  0  0  0  0  0  0  0  0  0
   30.4014    7.2545  -12.3119 H   0  0  0  0  0  0  0  0  0  0  0  0
   26.9150    9.7421   -9.9158 H   0  0  0  0  0  0  0  0  0  0  0  0
   29.9389   12.1936  -13.1794 H   0  0  0  0  0  0  0  0  0  0  0  0
   27.9652   11.7896  -11.3934 H   0  0  0  0  0  0  0  0  0  0  0  0
   26.4477    6.4558   -6.4117 H   0  0  0  0  0  0  0  0  0  0  0  0
   23.4607   10.4993   -8.3015 H   0  0  0  0  0  0  0  0  0  0  0  0
   22.9503    9.4101   -4.1598 H   0  0  0  0  0  0  0  0  0  0  0  0
   24.6743    7.6313   -4.4159 H   0  0  0  0  0  0  0  0  0  0  0  0
  1  2  2  0
  1  7  1  0
  1  5  1  0
  2  3  1  0
  3  4  1  0
  4  8  2  0
  4  6  1  0
  6 10  1  0
  6  7  2  0
  8  9  1  0
  9 10  2  0
  5 11  1  0
 11 12  2  0
 11 15  1  0
 12 13  1  0
 13 16  1  0
 13 14  1  0
 14 15  2  0
 14 19  1  0
 16 17  2  0
 17 18  1  0
 18 19  2  0
  2 20  1  0
  3 21  1  0
  7 22  1  0
  9 23  1  0
 10 24  1  0
 15 25  1  0
 16 26  1  0
 18 27  1  0
 19 28  1  0
M  END
>  <Pose ID>  (606)
270

>  <Score>  (606)
-5.05919075012207

>  <smiles>  (606)
c1cc2cc(Oc3c[nH]c4nccc-4c3)nn2cn1

$$$$

     RDKit          3D

 31 33  0  0  0  0  0  0  0  0999 V2000
   27.8730    7.8850   -9.9150 C   0  0  0  0  0  0  0  0  0  0  0  0
   26.9820    6.8220   -9.8940 N   0  0  0  0  0  0  0  0  0  0  0  0
   26.2330    6.5620   -8.7520 C   0  0  0  0  0  0  0  0  0  0  0  0
   28.0180    8.6940   -8.7930 N   0  0  0  0  0  0  0  0  0  0  0  0
   26.3790    7.3710   -7.6290 C   0  0  0  0  0  0  0  0  0  0  0  0
   27.1870    8.4160   -7.6410 C   0  0  0  0  0  0  0  0  0  0  0  0
   28.5440    8.1180  -10.9380 O   0  0  0  0  0  0  0  0  0  0  0  0
   25.6720    7.0790   -6.4890 N   0  0  0  0  0  0  0  0  0  0  0  0
   24.4000    7.6000   -6.1650 C   0  0  0  0  0  0  0  0  0  0  0  0
   23.2830    6.8480   -5.8190 N   0  0  0  0  0  0  0  0  0  0  0  0
   22.0840    7.4820   -5.5130 C   0  0  0  0  0  0  0  0  0  0  0  0
   22.0050    8.8700   -5.5530 C   0  0  0  0  0  0  0  0  0  0  0  0
   23.1210    9.6210   -5.8970 C   0  0  0  0  0  0  0  0  0  0  0  0
   24.3270    8.9840   -6.1750 C   0  0  0  0  0  0  0  0  0  0  0  0
   20.6990    9.2640   -5.2070 C   0  0  0  0  0  0  0  0  0  0  0  0
   19.5890    8.4970   -5.3360 O   0  0  0  0  0  0  0  0  0  0  0  0
   20.4750   10.3390   -4.3990 N   0  0  0  0  0  0  0  0  0  0  0  0
   18.6330    9.1620   -4.5450 C   0  0  0  0  0  0  0  0  0  0  0  0
   19.1800   10.3010   -3.9770 C   0  0  0  0  0  0  0  0  0  0  0  0
   23.0260   11.1250   -5.9690 C   0  0  1  0  0  0  0  0  0  0  0  0
   25.5267    5.7189   -8.7360 H   0  0  0  0  0  0  0  0  0  0  0  0
   28.6970    9.4684   -8.7822 H   0  0  0  0  0  0  0  0  0  0  0  0
   27.2287    9.0818   -6.7664 H   0  0  0  0  0  0  0  0  0  0  0  0
   26.1034    6.4285   -5.8169 H   0  0  0  0  0  0  0  0  0  0  0  0
   21.1999    6.8872   -5.2399 H   0  0  0  0  0  0  0  0  0  0  0  0
   25.2232    9.5798   -6.4029 H   0  0  0  0  0  0  0  0  0  0  0  0
   17.5964    8.8244   -4.3984 H   0  0  0  0  0  0  0  0  0  0  0  0
   18.6738   11.0247   -3.3212 H   0  0  0  0  0  0  0  0  0  0  0  0
   22.9998   11.5399   -4.9506 H   0  0  0  0  0  0  0  0  0  0  0  0
   23.9008   11.5224   -6.5045 H   0  0  0  0  0  0  0  0  0  0  0  0
   22.1081   11.4092   -6.5045 H   0  0  0  0  0  0  0  0  0  0  0  0
  8  5  1  0
  8  9  1  0
  9 14  1  0
  9 10  2  0
 10 11  1  0
 11 12  2  0
 12 13  1  0
 12 15  1  0
 13 14  2  0
 13 20  1  0
  1  7  2  0
  1  2  1  0
  1  4  1  0
  2  3  2  0
  3  5  1  0
  4  6  1  0
  5  6  2  0
 15 16  1  0
 15 17  2  0
 16 18  1  0
 17 19  1  0
 18 19  2  0
  3 21  1  0
  4 22  1  0
  6 23  1  0
  8 24  1  0
 11 25  1  0
 14 26  1  0
 18 27  1  0
 19 28  1  0
 20 29  1  1
 20 30  1  0
 20 31  1  0
M  END
>  <Pose ID>  (607)
105

>  <Score>  (607)
-5.055129051208496

>  <smiles>  (607)
Cc1cc(Nc2cnc(=O)[nH]c2)ncc1-c1ncco1

$$$$

     RDKit          3D

 29 31  0  0  0  0  0  0  0  0999 V2000
   27.8350    7.8530  -10.2150 C   0  0  0  0  0  0  0  0  0  0  0  0
   28.8060    7.1330  -10.8990 C   0  0  0  0  0  0  0  0  0  0  0  0
   29.6390    7.7770  -11.8060 N   0  0  0  0  0  0  0  0  0  0  0  0
   29.4990    9.1420  -12.0310 C   0  0  0  0  0  0  0  0  0  0  0  0
   27.0500    7.0340   -9.2930 O   0  0  0  0  0  0  0  0  0  0  0  0
   28.5250    9.8620  -11.3460 C   0  0  0  0  0  0  0  0  0  0  0  0
   27.6950    9.2170  -10.4380 C   0  0  0  0  0  0  0  0  0  0  0  0
   30.1730    9.9760  -12.8460 N   0  0  0  0  0  0  0  0  0  0  0  0
   29.6510   11.2430  -12.7110 C   0  0  0  0  0  0  0  0  0  0  0  0
   28.6390   11.0030  -11.7560 C   0  0  0  0  0  0  0  0  0  0  0  0
   26.2260    7.5520   -8.2890 C   0  0  0  0  0  0  0  0  0  0  0  0
   25.3910    8.6010   -8.6380 N   0  0  0  0  0  0  0  0  0  0  0  0
   24.6910    8.9820   -7.5070 N   0  0  0  0  0  0  0  0  0  0  0  0
   25.0650    8.1910   -6.4910 C   0  0  0  0  0  0  0  0  0  0  0  0
   25.9710    7.3210   -6.9480 C   0  0  0  0  0  0  0  0  0  0  0  0
   23.7360   10.0600   -7.5570 C   0  0  1  0  0  0  0  0  0  0  0  0
   23.7430   11.0740   -6.3880 C   0  0  1  0  0  0  0  0  0  0  0  0
   28.9157    6.0528  -10.7228 H   0  0  0  0  0  0  0  0  0  0  0  0
   30.3602    7.2431  -12.3117 H   0  0  0  0  0  0  0  0  0  0  0  0
   26.9263    9.7866   -9.8952 H   0  0  0  0  0  0  0  0  0  0  0  0
   29.9413   12.1803  -13.2082 H   0  0  0  0  0  0  0  0  0  0  0  0
   27.9831   11.8104  -11.3984 H   0  0  0  0  0  0  0  0  0  0  0  0
   24.6904    8.2482   -5.4583 H   0  0  0  0  0  0  0  0  0  0  0  0
   26.4463    6.5336   -6.3446 H   0  0  0  0  0  0  0  0  0  0  0  0
   23.9228   10.6233   -8.4832 H   0  0  0  0  0  0  0  0  0  0  0  0
   22.7540    9.5681   -7.4961 H   0  0  0  0  0  0  0  0  0  0  0  0
   23.7393   10.5308   -5.4315 H   0  0  0  0  0  0  0  0  0  0  0  0
   24.6455   11.6998   -6.4508 H   0  0  0  0  0  0  0  0  0  0  0  0
   22.8492   11.7122   -6.4508 H   0  0  0  0  0  0  0  0  0  0  0  0
  1  2  2  0
  1  7  1  0
  1  5  1  0
  2  3  1  0
  3  4  1  0
  4  8  2  0
  4  6  1  0
  6 10  1  0
  6  7  2  0
  8  9  1  0
  9 10  2  0
  5 11  1  0
 11 12  2  0
 11 15  1  0
 12 13  1  0
 13 16  1  0
 13 14  1  0
 14 15  2  0
 16 17  1  0
  2 18  1  0
  3 19  1  0
  7 20  1  0
  9 21  1  0
 10 22  1  0
 14 23  1  0
 15 24  1  0
 16 25  1  6
 16 26  1  0
 17 27  1  1
 17 28  1  0
 17 29  1  0
M  END
>  <Pose ID>  (608)
474

>  <Score>  (608)
-5.050649166107178

>  <smiles>  (608)
CCn1ccc(Oc2c[nH]c3nccc-3c2)n1

$$$$

     RDKit          3D

 36 39  0  0  0  0  0  0  0  0999 V2000
   27.6860    7.8120  -10.2450 C   0  0  0  0  0  0  0  0  0  0  0  0
   28.4810    7.0900  -11.1240 C   0  0  0  0  0  0  0  0  0  0  0  0
   29.3100    7.7550  -12.0200 N   0  0  0  0  0  0  0  0  0  0  0  0
   29.3440    9.1440  -12.0340 C   0  0  0  0  0  0  0  0  0  0  0  0
   26.8840    6.9660   -9.3650 O   0  0  0  0  0  0  0  0  0  0  0  0
   28.5480    9.8690  -11.1530 C   0  0  0  0  0  0  0  0  0  0  0  0
   27.7210    9.2010  -10.2560 C   0  0  0  0  0  0  0  0  0  0  0  0
   30.0510   10.0030  -12.7950 N   0  0  0  0  0  0  0  0  0  0  0  0
   29.7270   11.2890  -12.4300 C   0  0  0  0  0  0  0  0  0  0  0  0
   28.7830   11.0370  -11.4100 C   0  0  0  0  0  0  0  0  0  0  0  0
   26.2340    7.4250   -8.2130 C   0  0  0  0  0  0  0  0  0  0  0  0
   25.5270    8.6120   -8.3160 N   0  0  0  0  0  0  0  0  0  0  0  0
   24.9940    8.9000   -7.0730 N   0  0  0  0  0  0  0  0  0  0  0  0
   25.3430    7.9230   -6.2260 C   0  0  0  0  0  0  0  0  0  0  0  0
   26.0740    7.0260   -6.8970 C   0  0  0  0  0  0  0  0  0  0  0  0
   24.2410    9.9780   -6.7880 C   0  0  0  0  0  0  0  0  0  0  0  0
   24.7840   11.2240   -7.0780 C   0  0  0  0  0  0  0  0  0  0  0  0
   23.1300    9.8820   -5.9580 C   0  0  0  0  0  0  0  0  0  0  0  0
   22.5640   11.0310   -5.4190 C   0  0  0  0  0  0  0  0  0  0  0  0
   23.1090   12.2760   -5.7090 C   0  0  0  0  0  0  0  0  0  0  0  0
   24.2040   12.3820   -6.5420 N   0  0  0  0  0  0  0  0  0  0  0  0
   22.6070   13.3010   -5.2150 O   0  0  0  0  0  0  0  0  0  0  0  0
   24.8420   13.7050   -6.9210 C   0  0  1  0  0  0  0  0  0  0  0  0
   28.4551    5.9904  -11.1117 H   0  0  0  0  0  0  0  0  0  0  0  0
   29.8987    7.2185  -12.6731 H   0  0  0  0  0  0  0  0  0  0  0  0
   27.0946    9.7724   -9.5552 H   0  0  0  0  0  0  0  0  0  0  0  0
   30.0993   12.2466  -12.8229 H   0  0  0  0  0  0  0  0  0  0  0  0
   28.2833   11.8565  -10.8727 H   0  0  0  0  0  0  0  0  0  0  0  0
   25.0744    7.8677   -5.1607 H   0  0  0  0  0  0  0  0  0  0  0  0
   26.4887    6.1033   -6.4650 H   0  0  0  0  0  0  0  0  0  0  0  0
   25.6683   11.3014   -7.7277 H   0  0  0  0  0  0  0  0  0  0  0  0
   22.6989    8.8965   -5.7279 H   0  0  0  0  0  0  0  0  0  0  0  0
   21.6845   10.9550   -4.7627 H   0  0  0  0  0  0  0  0  0  0  0  0
   25.1088   14.2582   -6.0084 H   0  0  0  0  0  0  0  0  0  0  0  0
   25.7489   13.5180   -7.5147 H   0  0  0  0  0  0  0  0  0  0  0  0
   24.1310   14.2982   -7.5147 H   0  0  0  0  0  0  0  0  0  0  0  0
 11  5  1  0
 11 12  2  0
 11 15  1  0
 12 13  1  0
 13 16  1  0
 13 14  1  0
 14 15  2  0
 16 17  2  0
 16 18  1  0
 17 21  1  0
 18 19  2  0
 19 20  1  0
 20 21  1  0
 20 22  2  0
 21 23  1  0
  5  1  1  0
  1  2  2  0
  1  7  1  0
  2  3  1  0
  3  4  1  0
  4  8  2  0
  4  6  1  0
  6 10  1  0
  6  7  2  0
  8  9  1  0
  9 10  2  0
  2 24  1  0
  3 25  1  0
  7 26  1  0
  9 27  1  0
 10 28  1  0
 14 29  1  0
 15 30  1  0
 17 31  1  0
 18 32  1  0
 19 33  1  0
 23 34  1  1
 23 35  1  0
 23 36  1  0
M  END
>  <Pose ID>  (609)
467

>  <Score>  (609)
-5.049629211425781

>  <smiles>  (609)
Cn1cc(-n2ccc(Oc3c[nH]c4nccc-4c3)n2)ccc1=O

$$$$

     RDKit          3D

 24 26  0  0  0  0  0  0  0  0999 V2000
   27.6230   10.3940  -10.1070 C   0  0  0  0  0  0  0  0  0  0  0  0
   27.3850    9.1230   -9.6010 N   0  0  0  0  0  0  0  0  0  0  0  0
   28.3330   10.5510  -11.2900 N   0  0  0  0  0  0  0  0  0  0  0  0
   27.8460    8.0040  -10.3000 C   0  0  0  0  0  0  0  0  0  0  0  0
   28.5680    8.1610  -11.4610 C   0  0  0  0  0  0  0  0  0  0  0  0
   28.8040    9.4320  -11.9680 C   0  0  0  0  0  0  0  0  0  0  0  0
   27.6030    6.8620   -9.8730 O   0  0  0  0  0  0  0  0  0  0  0  0
   26.7640    8.7730   -8.3990 C   0  0  0  0  0  0  0  0  0  0  0  0
   25.5290    8.1350   -8.4410 C   0  0  0  0  0  0  0  0  0  0  0  0
   27.4250    8.9280   -7.1870 C   0  0  0  0  0  0  0  0  0  0  0  0
   24.9640    7.6460   -7.2130 C   0  0  0  0  0  0  0  0  0  0  0  0
   25.7150    7.8610   -6.0640 C   0  0  0  0  0  0  0  0  0  0  0  0
   26.8510    8.4460   -6.0150 N   0  0  0  0  0  0  0  0  0  0  0  0
   25.2440    7.4220   -4.8320 N   0  0  0  0  0  0  0  0  0  0  0  0
   24.0210    6.7660   -4.7500 C   0  0  0  0  0  0  0  0  0  0  0  0
   23.2700    6.5500   -5.8980 N   0  0  0  0  0  0  0  0  0  0  0  0
   23.7270    6.9870   -7.1300 C   0  0  0  0  0  0  0  0  0  0  0  0
   27.2485   11.2779   -9.5699 H   0  0  0  0  0  0  0  0  0  0  0  0
   28.9588    7.2782  -11.9882 H   0  0  0  0  0  0  0  0  0  0  0  0
   29.3641    9.5538  -12.9069 H   0  0  0  0  0  0  0  0  0  0  0  0
   24.9954    8.0072   -9.3944 H   0  0  0  0  0  0  0  0  0  0  0  0
   28.4023    9.4319   -7.1540 H   0  0  0  0  0  0  0  0  0  0  0  0
   23.6481    6.4179   -3.7754 H   0  0  0  0  0  0  0  0  0  0  0  0
   23.1260    6.8193   -8.0359 H   0  0  0  0  0  0  0  0  0  0  0  0
  8  2  1  0
  8  9  2  0
  8 10  1  0
  9 11  1  0
 10 13  2  0
 11 17  2  0
 11 12  1  0
 12 13  1  0
 12 14  2  0
 14 15  1  0
 15 16  2  0
 16 17  1  0
  1  3  2  0
  1  2  1  0
  2  4  1  0
  3  6  1  0
  4  5  1  0
  4  7  2  0
  5  6  2  0
  1 18  1  0
  5 19  1  0
  6 20  1  0
  9 21  1  0
 10 22  1  0
 15 23  1  0
 17 24  1  0
M  END
>  <Pose ID>  (610)
4

>  <Score>  (610)
-5.046716690063477

>  <smiles>  (610)
O=c1ccncn1-c1cnc2ncncc2c1

$$$$

     RDKit          3D

 38 41  0  0  0  0  0  0  0  0999 V2000
   28.0830    7.8750  -10.5240 C   0  0  0  0  0  0  0  0  0  0  0  0
   28.9580    7.1270  -11.2980 C   0  0  0  0  0  0  0  0  0  0  0  0
   29.8430    7.7620  -12.1610 N   0  0  0  0  0  0  0  0  0  0  0  0
   29.8520    9.1490  -12.2500 C   0  0  0  0  0  0  0  0  0  0  0  0
   27.2280    7.0590   -9.6670 O   0  0  0  0  0  0  0  0  0  0  0  0
   28.9710    9.9010  -11.4760 C   0  0  0  0  0  0  0  0  0  0  0  0
   28.0890    9.2620  -10.6140 C   0  0  0  0  0  0  0  0  0  0  0  0
   30.6000    9.9830  -12.9990 N   0  0  0  0  0  0  0  0  0  0  0  0
   30.2220   11.2790  -12.7330 C   0  0  0  0  0  0  0  0  0  0  0  0
   29.2040   11.0570  -11.7780 C   0  0  0  0  0  0  0  0  0  0  0  0
   26.4770    7.5620   -8.5970 C   0  0  0  0  0  0  0  0  0  0  0  0
   25.7590    8.7250   -8.8210 N   0  0  0  0  0  0  0  0  0  0  0  0
   25.1210    9.0650   -7.6440 N   0  0  0  0  0  0  0  0  0  0  0  0
   25.4210    8.1440   -6.7170 C   0  0  0  0  0  0  0  0  0  0  0  0
   26.2190    7.2300   -7.2800 C   0  0  0  0  0  0  0  0  0  0  0  0
   24.3380   10.0850   -7.4440 C   0  0  0  0  0  0  0  0  0  0  0  0
   23.7670   10.1690   -6.1800 N   0  0  0  0  0  0  0  0  0  0  0  0
   24.2600   11.1660   -8.3150 C   0  0  0  0  0  0  0  0  0  0  0  0
   23.6100   12.3300   -7.9220 C   0  0  0  0  0  0  0  0  0  0  0  0
   23.1170   11.3320   -5.7870 C   0  0  0  0  0  0  0  0  0  0  0  0
   23.0340   12.3860   -6.6470 C   0  0  0  0  0  0  0  0  0  0  0  0
   22.5030   11.4300   -4.4120 C   0  0  1  0  0  0  0  0  0  0  0  0
   23.5280   13.5140   -8.8530 C   0  0  1  0  0  0  0  0  0  0  0  0
   28.9513    6.0292  -11.2285 H   0  0  0  0  0  0  0  0  0  0  0  0
   30.4922    7.2048  -12.7346 H   0  0  0  0  0  0  0  0  0  0  0  0
   27.3939    9.8548  -10.0013 H   0  0  0  0  0  0  0  0  0  0  0  0
   30.6048   12.2233  -13.1475 H   0  0  0  0  0  0  0  0  0  0  0  0
   28.6470   11.8918  -11.3276 H   0  0  0  0  0  0  0  0  0  0  0  0
   25.0714    8.1406   -5.6740 H   0  0  0  0  0  0  0  0  0  0  0  0
   26.6140    6.3403   -6.7677 H   0  0  0  0  0  0  0  0  0  0  0  0
   24.7128   11.1000   -9.3153 H   0  0  0  0  0  0  0  0  0  0  0  0
   22.5045   13.2978   -6.3336 H   0  0  0  0  0  0  0  0  0  0  0  0
   23.2870   11.3049   -3.6506 H   0  0  0  0  0  0  0  0  0  0  0  0
   22.0288   12.4152   -4.2916 H   0  0  0  0  0  0  0  0  0  0  0  0
   21.7457   10.6414   -4.2916 H   0  0  0  0  0  0  0  0  0  0  0  0
   23.4638   14.4404   -8.2633 H   0  0  0  0  0  0  0  0  0  0  0  0
   24.4262   13.5446   -9.4873 H   0  0  0  0  0  0  0  0  0  0  0  0
   22.6342   13.4205   -9.4873 H   0  0  0  0  0  0  0  0  0  0  0  0
 11  5  1  0
 11 12  2  0
 11 15  1  0
 12 13  1  0
 13 16  1  0
 13 14  1  0
 14 15  2  0
 16 18  1  0
 16 17  2  0
 17 20  1  0
 18 19  2  0
 19 23  1  0
 19 21  1  0
 20 21  2  0
 20 22  1  0
  5  1  1  0
  1  2  2  0
  1  7  1  0
  2  3  1  0
  3  4  1  0
  4  8  2  0
  4  6  1  0
  6 10  1  0
  6  7  2  0
  8  9  1  0
  9 10  2  0
  2 24  1  0
  3 25  1  0
  7 26  1  0
  9 27  1  0
 10 28  1  0
 14 29  1  0
 15 30  1  0
 18 31  1  0
 21 32  1  0
 22 33  1  1
 22 34  1  0
 22 35  1  0
 23 36  1  1
 23 37  1  0
 23 38  1  0
M  END
>  <Pose ID>  (611)
312

>  <Score>  (611)
-5.0464677810668945

>  <smiles>  (611)
Cc1cc(C)nc(-n2ccc(Oc3c[nH]c4nccc-4c3)n2)c1

$$$$

     RDKit          3D

 34 36  0  0  0  0  0  0  0  0999 V2000
   27.7900    7.9370   -9.8080 C   0  0  0  0  0  0  0  0  0  0  0  0
   26.9860    6.8090   -9.7470 N   0  0  0  0  0  0  0  0  0  0  0  0
   26.2470    6.5400   -8.6010 C   0  0  0  0  0  0  0  0  0  0  0  0
   27.8540    8.8060   -8.7240 N   0  0  0  0  0  0  0  0  0  0  0  0
   26.3140    7.4080   -7.5150 C   0  0  0  0  0  0  0  0  0  0  0  0
   27.0380    8.5130   -7.5680 C   0  0  0  0  0  0  0  0  0  0  0  0
   28.4530    8.1780  -10.8350 O   0  0  0  0  0  0  0  0  0  0  0  0
   25.6190    7.1100   -6.3680 N   0  0  0  0  0  0  0  0  0  0  0  0
   24.3060    7.5440   -6.0770 C   0  0  0  0  0  0  0  0  0  0  0  0
   23.2490    6.7200   -5.7090 N   0  0  0  0  0  0  0  0  0  0  0  0
   22.0000    7.2670   -5.4420 C   0  0  0  0  0  0  0  0  0  0  0  0
   21.8090    8.6420   -5.5470 C   0  0  0  0  0  0  0  0  0  0  0  0
   22.8660    9.4660   -5.9140 C   0  0  0  0  0  0  0  0  0  0  0  0
   24.1210    8.9150   -6.1540 C   0  0  0  0  0  0  0  0  0  0  0  0
   20.4750    8.9450   -5.2280 C   0  0  0  0  0  0  0  0  0  0  0  0
   19.4280    8.0860   -5.3320 O   0  0  0  0  0  0  0  0  0  0  0  0
   18.3000    8.7430   -4.9320 N   0  0  0  0  0  0  0  0  0  0  0  0
   18.6530    9.9940   -4.5750 C   0  0  0  0  0  0  0  0  0  0  0  0
   20.0040   10.1450   -4.7930 C   0  0  0  0  0  0  0  0  0  0  0  0
   17.7240   11.0500   -4.0280 C   0  0  1  0  0  0  0  0  0  0  0  0
   17.2690   10.5080   -2.6370 C   0  0  1  0  0  0  0  0  0  0  0  0
   25.6111    5.6438   -8.5524 H   0  0  0  0  0  0  0  0  0  0  0  0
   28.4655    9.6346   -8.7446 H   0  0  0  0  0  0  0  0  0  0  0  0
   27.0190    9.2169   -6.7229 H   0  0  0  0  0  0  0  0  0  0  0  0
   26.0920    6.5243   -5.6651 H   0  0  0  0  0  0  0  0  0  0  0  0
   21.1640    6.6151   -5.1483 H   0  0  0  0  0  0  0  0  0  0  0  0
   22.7111   10.5504   -6.0145 H   0  0  0  0  0  0  0  0  0  0  0  0
   24.9685    9.5696   -6.4055 H   0  0  0  0  0  0  0  0  0  0  0  0
   20.5917   11.0627   -4.6436 H   0  0  0  0  0  0  0  0  0  0  0  0
   18.2520   12.0084   -3.9154 H   0  0  0  0  0  0  0  0  0  0  0  0
   16.8713   11.2364   -4.6974 H   0  0  0  0  0  0  0  0  0  0  0  0
   17.7564   11.0886   -1.8399 H   0  0  0  0  0  0  0  0  0  0  0  0
   16.1771   10.6042   -2.5453 H   0  0  0  0  0  0  0  0  0  0  0  0
   17.5528    9.4492   -2.5453 H   0  0  0  0  0  0  0  0  0  0  0  0
  8  5  1  0
  8  9  1  0
  9 14  1  0
  9 10  2  0
 10 11  1  0
 11 12  2  0
 12 13  1  0
 12 15  1  0
 13 14  2  0
  1  7  2  0
  1  2  1  0
  1  4  1  0
  2  3  2  0
  3  5  1  0
  4  6  1  0
  5  6  2  0
 15 16  1  0
 15 19  2  0
 16 17  1  0
 17 18  2  0
 18 19  1  0
 18 20  1  0
 20 21  1  0
  3 22  1  0
  4 23  1  0
  6 24  1  0
  8 25  1  0
 11 26  1  0
 13 27  1  0
 14 28  1  0
 19 29  1  0
 20 30  1  1
 20 31  1  0
 21 32  1  1
 21 33  1  0
 21 34  1  0
M  END
>  <Pose ID>  (612)
101

>  <Score>  (612)
-5.037181377410889

>  <smiles>  (612)
CCc1cc(-c2ccc(Nc3cnc(=O)[nH]c3)nc2)on1

$$$$

     RDKit          3D

 19 20  0  0  0  0  0  0  0  0999 V2000
   28.0190    6.9580  -10.6780 C   0  0  0  0  0  0  0  0  0  0  0  0
   27.3720    7.0670   -9.4530 N   0  0  0  0  0  0  0  0  0  0  0  0
   27.1280    8.3210   -8.9050 C   0  0  0  0  0  0  0  0  0  0  0  0
   26.2090    8.3450   -7.8670 C   0  0  0  0  0  0  0  0  0  0  0  0
   25.8220    9.5450   -7.2860 N   0  0  0  0  0  0  0  0  0  0  0  0
   26.3080   10.7480   -7.7870 C   0  0  0  0  0  0  0  0  0  0  0  0
   27.1800   10.7480   -8.8700 C   0  0  0  0  0  0  0  0  0  0  0  0
   27.5320    9.4660   -9.5820 C   0  0  0  0  0  0  0  0  0  0  0  0
   28.4220    8.1020  -11.3560 C   0  0  0  0  0  0  0  0  0  0  0  0
   28.1770    9.3570  -10.8080 C   0  0  0  0  0  0  0  0  0  0  0  0
   25.6220    7.0500   -7.3620 C   0  0  1  0  0  0  0  0  0  0  0  0
   28.2122    5.9655  -11.1112 H   0  0  0  0  0  0  0  0  0  0  0  0
   26.0026   11.6992   -7.3266 H   0  0  0  0  0  0  0  0  0  0  0  0
   27.6194   11.6966   -9.2123 H   0  0  0  0  0  0  0  0  0  0  0  0
   28.9345    8.0153  -12.3255 H   0  0  0  0  0  0  0  0  0  0  0  0
   28.4939   10.2631  -11.3452 H   0  0  0  0  0  0  0  0  0  0  0  0
   25.6227    7.0514   -6.2620 H   0  0  0  0  0  0  0  0  0  0  0  0
   24.5897    6.9480   -7.7279 H   0  0  0  0  0  0  0  0  0  0  0  0
   26.2257    6.2064   -7.7279 H   0  0  0  0  0  0  0  0  0  0  0  0
  1  9  2  0
  1  2  1  0
  2  3  2  0
  3  8  1  0
  3  4  1  0
  4 11  1  0
  4  5  2  0
  5  6  1  0
  6  7  2  0
  7  8  1  0
  8 10  2  0
  9 10  1  0
  1 12  1  0
  6 13  1  0
  7 14  1  0
  9 15  1  0
 10 16  1  0
 11 17  1  1
 11 18  1  0
 11 19  1  0
M  END
>  <Pose ID>  (613)
1

>  <Score>  (613)
-5.026206970214844

>  <smiles>  (613)
Cc1nccc2cccnc12

$$$$

     RDKit          3D

 16 17  0  0  0  0  0  0  0  0999 V2000
   27.9600    9.8600  -11.3140 C   0  0  0  0  0  0  0  0  0  0  0  0
   28.5960    8.6260  -11.2560 C   0  0  0  0  0  0  0  0  0  0  0  0
   28.2790    7.4760  -10.6210 N   0  0  0  0  0  0  0  0  0  0  0  0
   27.0920    7.4050   -9.9020 C   0  0  0  0  0  0  0  0  0  0  0  0
   26.6040    9.6890  -10.4880 N   0  0  0  0  0  0  0  0  0  0  0  0
   26.2550    8.5130   -9.8350 C   0  0  0  0  0  0  0  0  0  0  0  0
   26.7800    6.3530   -9.3170 O   0  0  0  0  0  0  0  0  0  0  0  0
   29.8110    8.4400  -11.9040 N   0  0  0  0  0  0  0  0  0  0  0  0
   30.3900    9.4880  -12.6100 C   0  0  0  0  0  0  0  0  0  0  0  0
   29.7540   10.7220  -12.6670 C   0  0  0  0  0  0  0  0  0  0  0  0
   28.5330   10.9040  -12.0060 C   0  0  0  0  0  0  0  0  0  0  0  0
   28.9091    6.6626  -10.6693 H   0  0  0  0  0  0  0  0  0  0  0  0
   25.3159    8.4588   -9.2648 H   0  0  0  0  0  0  0  0  0  0  0  0
   31.3515    9.3405  -13.1235 H   0  0  0  0  0  0  0  0  0  0  0  0
   30.2074   11.5520  -13.2287 H   0  0  0  0  0  0  0  0  0  0  0  0
   28.0308   11.8821  -12.0395 H   0  0  0  0  0  0  0  0  0  0  0  0
  1 11  1  0
  1  2  2  0
  1  5  1  0
  2  8  1  0
  2  3  1  0
  3  4  1  0
  4  6  1  0
  4  7  2  0
  5  6  2  0
  8  9  2  0
  9 10  1  0
 10 11  2  0
  3 12  1  0
  6 13  1  0
  9 14  1  0
 10 15  1  0
 11 16  1  0
M  END
>  <Pose ID>  (614)
228

>  <Score>  (614)
-5.024385929107666

>  <smiles>  (614)
O=c1cnc2cccnc2[nH]1

$$$$

     RDKit          3D

 34 36  0  0  0  0  0  0  0  0999 V2000
   27.8290    7.8430  -10.2370 C   0  0  0  0  0  0  0  0  0  0  0  0
   28.8150    7.1260  -10.9040 C   0  0  0  0  0  0  0  0  0  0  0  0
   29.6700    7.7750  -11.7860 N   0  0  0  0  0  0  0  0  0  0  0  0
   29.5380    9.1410  -12.0050 C   0  0  0  0  0  0  0  0  0  0  0  0
   27.0210    7.0200   -9.3400 O   0  0  0  0  0  0  0  0  0  0  0  0
   28.5510    9.8590  -11.3370 C   0  0  0  0  0  0  0  0  0  0  0  0
   27.6980    9.2100  -10.4540 C   0  0  0  0  0  0  0  0  0  0  0  0
   30.2330    9.9800  -12.7970 N   0  0  0  0  0  0  0  0  0  0  0  0
   29.7110   11.2470  -12.6650 C   0  0  0  0  0  0  0  0  0  0  0  0
   28.6770   11.0030  -11.7360 C   0  0  0  0  0  0  0  0  0  0  0  0
   26.1760    7.5330   -8.3520 C   0  0  0  0  0  0  0  0  0  0  0  0
   25.3510    8.5860   -8.7120 N   0  0  0  0  0  0  0  0  0  0  0  0
   24.6250    8.9600   -7.5950 N   0  0  0  0  0  0  0  0  0  0  0  0
   24.9750    8.1610   -6.5770 C   0  0  0  0  0  0  0  0  0  0  0  0
   25.8890    7.2910   -7.0190 C   0  0  0  0  0  0  0  0  0  0  0  0
   23.6760   10.0420   -7.6590 C   0  0  1  0  0  0  0  0  0  0  0  0
   24.6070    8.0620   -5.2640 N   0  0  0  0  0  0  0  0  0  0  0  0
   24.4950    9.2740   -4.4400 C   0  0  1  0  0  0  0  0  0  0  0  0
   24.3220    6.7260   -4.6790 C   0  0  1  0  0  0  0  0  0  0  0  0
   28.9185    6.0442  -10.7336 H   0  0  0  0  0  0  0  0  0  0  0  0
   30.4023    7.2433  -12.2780 H   0  0  0  0  0  0  0  0  0  0  0  0
   26.9180    9.7780   -9.9258 H   0  0  0  0  0  0  0  0  0  0  0  0
   30.0150   12.1871  -13.1486 H   0  0  0  0  0  0  0  0  0  0  0  0
   28.0148   11.8094  -11.3880 H   0  0  0  0  0  0  0  0  0  0  0  0
   26.3472    6.4970   -6.4111 H   0  0  0  0  0  0  0  0  0  0  0  0
   23.4041   10.3520   -6.6392 H   0  0  0  0  0  0  0  0  0  0  0  0
   24.1249   10.8923   -8.1933 H   0  0  0  0  0  0  0  0  0  0  0  0
   22.7744    9.7078   -8.1933 H   0  0  0  0  0  0  0  0  0  0  0  0
   24.5206    8.9974   -3.3756 H   0  0  0  0  0  0  0  0  0  0  0  0
   25.3346    9.9485   -4.6638 H   0  0  0  0  0  0  0  0  0  0  0  0
   23.5460    9.7832   -4.6638 H   0  0  0  0  0  0  0  0  0  0  0  0
   24.3369    6.7956   -3.5813 H   0  0  0  0  0  0  0  0  0  0  0  0
   23.3307    6.3841   -5.0113 H   0  0  0  0  0  0  0  0  0  0  0  0
   25.0875    6.0093   -5.0113 H   0  0  0  0  0  0  0  0  0  0  0  0
  1  2  2  0
  1  7  1  0
  1  5  1  0
  2  3  1  0
  3  4  1  0
  4  8  2  0
  4  6  1  0
  6 10  1  0
  6  7  2  0
  8  9  1  0
  9 10  2  0
  5 11  1  0
 11 12  2  0
 11 15  1  0
 12 13  1  0
 13 16  1  0
 13 14  1  0
 14 15  2  0
 14 17  1  0
 17 19  1  0
 17 18  1  0
  2 20  1  0
  3 21  1  0
  7 22  1  0
  9 23  1  0
 10 24  1  0
 15 25  1  0
 16 26  1  1
 16 27  1  0
 16 28  1  0
 18 29  1  1
 18 30  1  0
 18 31  1  0
 19 32  1  1
 19 33  1  0
 19 34  1  0
M  END
>  <Pose ID>  (615)
548

>  <Score>  (615)
-5.017155647277832

>  <smiles>  (615)
CN(C)c1cc(Oc2c[nH]c3nccc-3c2)nn1C

$$$$

     RDKit          3D

 17 18  0  0  0  0  0  0  0  0999 V2000
   26.1360    7.5320   -8.7810 C   0  0  0  0  0  0  0  0  0  0  0  0
   27.1610    6.9350   -9.5060 N   0  0  0  0  0  0  0  0  0  0  0  0
   25.8470    8.8800   -8.9630 N   0  0  0  0  0  0  0  0  0  0  0  0
   26.5390    9.5900   -9.8450 C   0  0  0  0  0  0  0  0  0  0  0  0
   27.6180    9.2130  -10.6350 C   0  0  0  0  0  0  0  0  0  0  0  0
   27.8930    7.6860  -10.4170 C   0  0  0  0  0  0  0  0  0  0  0  0
   26.0930   10.9060   -9.8610 N   0  0  0  0  0  0  0  0  0  0  0  0
   26.7260   11.8450  -10.6650 C   0  0  0  0  0  0  0  0  0  0  0  0
   27.8050   11.4680  -11.4550 N   0  0  0  0  0  0  0  0  0  0  0  0
   28.2610   10.1620  -11.4450 C   0  0  0  0  0  0  0  0  0  0  0  0
   29.4400    9.7610  -12.2960 C   0  0  1  0  0  0  0  0  0  0  0  0
   25.5528    6.9373   -8.0625 H   0  0  0  0  0  0  0  0  0  0  0  0
   28.6863    7.1959  -11.0005 H   0  0  0  0  0  0  0  0  0  0  0  0
   26.3732   12.8868  -10.6764 H   0  0  0  0  0  0  0  0  0  0  0  0
   30.2806    9.4751  -11.6466 H   0  0  0  0  0  0  0  0  0  0  0  0
   29.1604    8.9074  -12.9310 H   0  0  0  0  0  0  0  0  0  0  0  0
   29.7388   10.6080  -12.9310 H   0  0  0  0  0  0  0  0  0  0  0  0
  1  2  2  0
  1  3  1  0
  2  6  1  0
  3  4  2  0
  4  5  1  0
  4  7  1  0
  5 10  1  0
  5  6  2  0
  7  8  2  0
  8  9  1  0
  9 10  2  0
 10 11  1  0
  1 12  1  0
  6 13  1  0
  8 14  1  0
 11 15  1  1
 11 16  1  0
 11 17  1  0
M  END
>  <Pose ID>  (616)
11

>  <Score>  (616)
-5.00660514831543

>  <smiles>  (616)
Cc1ncnc2ncncc12

$$$$

     RDKit          3D

 28 30  0  0  0  0  0  0  0  0999 V2000
   27.8240    7.8870   -9.8400 C   0  0  0  0  0  0  0  0  0  0  0  0
   26.9590    6.8050   -9.7990 N   0  0  0  0  0  0  0  0  0  0  0  0
   26.2070    6.5540   -8.6580 C   0  0  0  0  0  0  0  0  0  0  0  0
   27.9370    8.7280   -8.7350 N   0  0  0  0  0  0  0  0  0  0  0  0
   26.3210    7.3930   -7.5540 C   0  0  0  0  0  0  0  0  0  0  0  0
   27.1050    8.4560   -7.5850 C   0  0  0  0  0  0  0  0  0  0  0  0
   28.5000    8.1140  -10.8610 O   0  0  0  0  0  0  0  0  0  0  0  0
   25.6120    7.1090   -6.4130 N   0  0  0  0  0  0  0  0  0  0  0  0
   24.3240    7.6080   -6.1140 C   0  0  0  0  0  0  0  0  0  0  0  0
   23.2230    6.8360   -5.7600 N   0  0  0  0  0  0  0  0  0  0  0  0
   22.0070    7.4480   -5.4810 C   0  0  0  0  0  0  0  0  0  0  0  0
   21.8910    8.8320   -5.5540 C   0  0  0  0  0  0  0  0  0  0  0  0
   22.9920    9.6040   -5.9070 C   0  0  0  0  0  0  0  0  0  0  0  0
   24.2160    8.9900   -6.1580 C   0  0  0  0  0  0  0  0  0  0  0  0
   20.5730    9.2010   -5.2290 C   0  0  0  0  0  0  0  0  0  0  0  0
   20.3160   10.2890   -4.4510 N   0  0  0  0  0  0  0  0  0  0  0  0
   19.4840    8.4040   -5.3500 O   0  0  0  0  0  0  0  0  0  0  0  0
   18.5050    9.0650   -4.5830 C   0  0  0  0  0  0  0  0  0  0  0  0
   19.0180   10.2290   -4.0390 C   0  0  0  0  0  0  0  0  0  0  0  0
   25.5226    5.6934   -8.6275 H   0  0  0  0  0  0  0  0  0  0  0  0
   28.5946    9.5208   -8.7376 H   0  0  0  0  0  0  0  0  0  0  0  0
   27.1247    9.1421   -6.7254 H   0  0  0  0  0  0  0  0  0  0  0  0
   26.0524    6.4846   -5.7223 H   0  0  0  0  0  0  0  0  0  0  0  0
   21.1356    6.8374   -5.2022 H   0  0  0  0  0  0  0  0  0  0  0  0
   22.8963   10.6968   -5.9878 H   0  0  0  0  0  0  0  0  0  0  0  0
   25.0994    9.6023   -6.3917 H   0  0  0  0  0  0  0  0  0  0  0  0
   17.4757    8.7057   -4.4368 H   0  0  0  0  0  0  0  0  0  0  0  0
   18.4882   10.9555   -3.4053 H   0  0  0  0  0  0  0  0  0  0  0  0
  8  5  1  0
  8  9  1  0
  9 14  1  0
  9 10  2  0
 10 11  1  0
 11 12  2  0
 12 13  1  0
 12 15  1  0
 13 14  2  0
  1  7  2  0
  1  2  1  0
  1  4  1  0
  2  3  2  0
  3  5  1  0
  4  6  1  0
  5  6  2  0
 15 17  1  0
 15 16  2  0
 16 19  1  0
 17 18  1  0
 18 19  2  0
  3 20  1  0
  4 21  1  0
  6 22  1  0
  8 23  1  0
 11 24  1  0
 13 25  1  0
 14 26  1  0
 18 27  1  0
 19 28  1  0
M  END
>  <Pose ID>  (617)
116

>  <Score>  (617)
-5.005212783813477

>  <smiles>  (617)
O=c1ncc(Nc2ccc(-c3ncco3)cn2)c[nH]1

$$$$

     RDKit          3D

 34 36  0  0  0  0  0  0  0  0999 V2000
   27.8700    7.8870   -9.9230 C   0  0  0  0  0  0  0  0  0  0  0  0
   26.9820    6.8230   -9.8990 N   0  0  0  0  0  0  0  0  0  0  0  0
   26.2390    6.5600   -8.7540 C   0  0  0  0  0  0  0  0  0  0  0  0
   28.0190    8.6970   -8.8010 N   0  0  0  0  0  0  0  0  0  0  0  0
   26.3890    7.3680   -7.6310 C   0  0  0  0  0  0  0  0  0  0  0  0
   27.1940    8.4150   -7.6460 C   0  0  0  0  0  0  0  0  0  0  0  0
   28.5370    8.1230  -10.9480 O   0  0  0  0  0  0  0  0  0  0  0  0
   25.6870    7.0740   -6.4870 N   0  0  0  0  0  0  0  0  0  0  0  0
   24.4160    7.5930   -6.1580 C   0  0  0  0  0  0  0  0  0  0  0  0
   23.3030    6.8370   -5.8070 N   0  0  0  0  0  0  0  0  0  0  0  0
   22.1030    7.4690   -5.4950 C   0  0  0  0  0  0  0  0  0  0  0  0
   22.0210    8.8570   -5.5330 C   0  0  0  0  0  0  0  0  0  0  0  0
   23.1340    9.6110   -5.8820 C   0  0  0  0  0  0  0  0  0  0  0  0
   24.3390    8.9770   -6.1660 C   0  0  0  0  0  0  0  0  0  0  0  0
   20.7160    9.2480   -5.1810 C   0  0  0  0  0  0  0  0  0  0  0  0
   19.6060    8.4780   -5.3050 O   0  0  0  0  0  0  0  0  0  0  0  0
   20.4940   10.3210   -4.3710 N   0  0  0  0  0  0  0  0  0  0  0  0
   18.6530    9.1410   -4.5080 C   0  0  0  0  0  0  0  0  0  0  0  0
   19.2000   10.2810   -3.9430 C   0  0  0  0  0  0  0  0  0  0  0  0
   18.5090   11.2720   -3.0390 C   0  0  1  0  0  0  0  0  0  0  0  0
   23.0360   11.1150   -5.9520 C   0  0  1  0  0  0  0  0  0  0  0  0
   25.5344    5.7155   -8.7357 H   0  0  0  0  0  0  0  0  0  0  0  0
   28.6958    9.4734   -8.7930 H   0  0  0  0  0  0  0  0  0  0  0  0
   27.2378    9.0800   -6.7709 H   0  0  0  0  0  0  0  0  0  0  0  0
   26.1222    6.4240   -5.8169 H   0  0  0  0  0  0  0  0  0  0  0  0
   21.2212    6.8721   -5.2189 H   0  0  0  0  0  0  0  0  0  0  0  0
   25.2327    9.5751   -6.3974 H   0  0  0  0  0  0  0  0  0  0  0  0
   17.6181    8.8008   -4.3554 H   0  0  0  0  0  0  0  0  0  0  0  0
   18.6965   11.0031   -1.9890 H   0  0  0  0  0  0  0  0  0  0  0  0
   18.9001   12.2814   -3.2345 H   0  0  0  0  0  0  0  0  0  0  0  0
   17.4267   11.2539   -3.2345 H   0  0  0  0  0  0  0  0  0  0  0  0
   23.0091   11.5285   -4.9330 H   0  0  0  0  0  0  0  0  0  0  0  0
   23.9100   11.5149   -6.4870 H   0  0  0  0  0  0  0  0  0  0  0  0
   22.1175   11.3981   -6.4870 H   0  0  0  0  0  0  0  0  0  0  0  0
  8  5  1  0
  8  9  1  0
  9 14  1  0
  9 10  2  0
 10 11  1  0
 11 12  2  0
 12 13  1  0
 12 15  1  0
 13 14  2  0
 13 21  1  0
  1  7  2  0
  1  2  1  0
  1  4  1  0
  2  3  2  0
  3  5  1  0
  4  6  1  0
  5  6  2  0
 15 16  1  0
 15 17  2  0
 16 18  1  0
 17 19  1  0
 18 19  2  0
 19 20  1  0
  3 22  1  0
  4 23  1  0
  6 24  1  0
  8 25  1  0
 11 26  1  0
 14 27  1  0
 18 28  1  0
 20 29  1  1
 20 30  1  0
 20 31  1  0
 21 32  1  1
 21 33  1  0
 21 34  1  0
M  END
>  <Pose ID>  (618)
107

>  <Score>  (618)
-5.004125118255615

>  <smiles>  (618)
Cc1coc(-c2cnc(Nc3cnc(=O)[nH]c3)cc2C)n1

$$$$
