
     RDKit          3D

  3  2  0  0  0  0  0  0  0  0999 V2000
   28.1150    7.8250  -10.4000 C   0  0  0  0  0  0  0  0  0  0  0  0
   27.2370    7.1980   -9.5750 N   0  0  0  0  0  0  0  0  0  0  0  0
   26.1330    7.8870   -9.1910 C   0  0  0  0  0  0  0  0  0  0  0  0
  3  2  2  0
  2  1  1  0
M  END
>  <Pose ID>  (1)
157

>  <Score>  (1)
-11.883349895477295

$$$$

     RDKit          3D

  3  2  0  0  0  0  0  0  0  0999 V2000
   26.2720    8.0640   -8.5270 C   0  0  0  0  0  0  0  0  0  0  0  0
   27.2090    7.3680   -9.2310 N   0  0  0  0  0  0  0  0  0  0  0  0
   25.5940    7.4200   -7.4800 N   0  0  0  0  0  0  0  0  0  0  0  0
  1  2  2  0
  1  3  1  0
M  END
>  <Pose ID>  (2)
273

>  <Score>  (2)
-11.862103939056396

$$$$

     RDKit          3D

  3  2  0  0  0  0  0  0  0  0999 V2000
   26.0700    7.4550   -7.7510 N   0  0  0  0  0  0  0  0  0  0  0  0
   26.4420    7.6510   -9.0370 C   0  0  0  0  0  0  0  0  0  0  0  0
   27.0670    6.7900   -9.6380 O   0  0  0  0  0  0  0  0  0  0  0  0
  1  2  1  0
  2  3  2  0
M  END
>  <Pose ID>  (3)
287

>  <Score>  (3)
-11.647566318511963

$$$$

     RDKit          3D

  3  2  0  0  0  0  0  0  0  0999 V2000
   25.9110    8.0680   -8.7800 C   0  0  0  0  0  0  0  0  0  0  0  0
   26.8020    6.9790   -9.1580 N   0  0  0  0  0  0  0  0  0  0  0  0
   27.8350    7.3200  -10.1040 N   0  0  0  0  0  0  0  0  0  0  0  0
  1  2  1  0
  2  3  2  0
M  END
>  <Pose ID>  (4)
166

>  <Score>  (4)
-11.606190919876099

$$$$

     RDKit          3D

  3  2  0  0  0  0  0  0  0  0999 V2000
   28.4080   12.1130  -11.2450 C   0  0  0  0  0  0  0  0  0  0  0  0
   28.6110   13.0040  -10.1170 C   0  0  0  0  0  0  0  0  0  0  0  0
   29.6290   13.6460   -9.7690 O   0  0  0  0  0  0  0  0  0  0  0  0
  1  2  1  0
  2  3  2  0
M  END
>  <Pose ID>  (5)
139

>  <Score>  (5)
-11.5759437084198

$$$$

     RDKit          3D

  3  2  0  0  0  0  0  0  0  0999 V2000
   26.9600    7.7420   -8.9350 C   0  0  0  0  0  0  0  0  0  0  0  0
   25.9380    8.3120   -8.1580 C   0  0  0  0  0  0  0  0  0  0  0  0
   25.3300    7.5260   -7.0080 N   0  0  0  0  0  0  0  0  0  0  0  0
  1  2  2  0
  2  3  1  0
M  END
>  <Pose ID>  (6)
72

>  <Score>  (6)
-11.506571769714355

$$$$

     RDKit          3D

  3  2  0  0  0  0  0  0  0  0999 V2000
   28.8690   13.0010  -10.2980 C   0  0  0  0  0  0  0  0  0  0  0  0
   29.4930   12.7310  -11.2880 O   0  0  0  0  0  0  0  0  0  0  0  0
   28.0670   12.2050   -9.8300 O   0  0  0  0  0  0  0  0  0  0  0  0
  1  2  2  0
  1  3  1  0
M  CHG  1   3  -1
M  END
>  <Pose ID>  (7)
87

>  <Score>  (7)
-11.316809177398682

$$$$

     RDKit          3D

  3  2  0  0  0  0  0  0  0  0999 V2000
   27.5650    8.1460   -9.6780 C   0  0  0  0  0  0  0  0  0  0  0  0
   26.2390    7.1990   -8.0170 N   0  0  0  0  0  0  0  0  0  0  0  0
   26.7950    6.9530   -9.3260 N   0  0  0  0  0  0  0  0  0  0  0  0
  1  3  2  0
  2  3  1  0
M  END
>  <Pose ID>  (8)
261

>  <Score>  (8)
-11.272620916366577

$$$$

     RDKit          3D

  3  2  0  0  0  0  0  0  0  0999 V2000
   27.2800    9.7570  -10.4450 C   0  0  0  0  0  0  0  0  0  0  0  0
   27.6850    8.4230  -10.2800 C   0  0  0  0  0  0  0  0  0  0  0  0
   28.8300    7.8670  -11.1110 N   0  0  0  0  0  0  0  0  0  0  0  0
  1  2  2  0
  2  3  1  0
M  END
>  <Pose ID>  (9)
73

>  <Score>  (9)
-11.245098352432251

$$$$

     RDKit          3D

  3  2  0  0  0  0  0  0  0  0999 V2000
   26.6470    8.5400   -7.5080 C   0  0  0  0  0  0  0  0  0  0  0  0
   26.2130    7.2200   -7.9930 N   0  0  0  0  0  0  0  0  0  0  0  0
   26.8280    7.0450   -9.2880 N   0  0  0  0  0  0  0  0  0  0  0  0
  1  2  1  0
  2  3  1  0
M  END
>  <Pose ID>  (10)
250

>  <Score>  (10)
-11.232460975646973

$$$$

     RDKit          3D

  3  2  0  0  0  0  0  0  0  0999 V2000
   25.3400   13.7110   -5.6570 C   0  0  0  0  0  0  0  0  0  0  0  0
   26.2860   15.8690   -5.1950 C   0  0  0  0  0  0  0  0  0  0  0  0
   25.7230   14.6520   -4.5940 N   0  0  0  0  0  0  0  0  0  0  0  0
  1  3  1  0
  2  3  1  0
M  CHG  1   3   1
M  END
>  <Pose ID>  (11)
1

>  <Score>  (11)
-11.154857158660889

$$$$

     RDKit          3D

  3  2  0  0  0  0  0  0  0  0999 V2000
   19.3030    9.5370   -4.9480 C   0  0  0  0  0  0  0  0  0  0  0  0
   18.9480   10.8900   -2.9760 C   0  0  0  0  0  0  0  0  0  0  0  0
   19.7180   10.7610   -4.2310 N   0  0  0  0  0  0  0  0  0  0  0  0
  1  3  1  0
  2  3  1  0
M  CHG  1   3   1
M  END
>  <Pose ID>  (12)
42

>  <Score>  (12)
-10.932565689086914

$$$$

     RDKit          3D

  3  2  0  0  0  0  0  0  0  0999 V2000
   23.6920    8.8630   -5.6330 C   0  0  0  0  0  0  0  0  0  0  0  0
   24.4990    7.7870   -6.0380 C   0  0  0  0  0  0  0  0  0  0  0  0
   24.5010    6.4950   -5.2360 N   0  0  0  0  0  0  0  0  0  0  0  0
  1  2  2  0
  2  3  1  0
M  END
>  <Pose ID>  (13)
74

>  <Score>  (13)
-10.890490770339966

$$$$

     RDKit          3D

  3  2  0  0  0  0  0  0  0  0999 V2000
   27.9380   15.1260  -10.5720 C   0  0  0  0  0  0  0  0  0  0  0  0
   27.0450   15.1970  -11.8260 C   0  0  0  0  0  0  0  0  0  0  0  0
   28.5590   16.4380  -10.3380 N   0  0  0  0  0  0  0  0  0  0  0  0
  3  1  1  0
  1  2  1  0
M  CHG  1   3   1
M  END
>  <Pose ID>  (14)
8

>  <Score>  (14)
-10.74742865562439

$$$$

     RDKit          3D

  3  2  0  0  0  0  0  0  0  0999 V2000
   19.5010   10.1520   -3.1710 C   0  0  0  0  0  0  0  0  0  0  0  0
   17.3790    9.9250   -2.0720 C   0  0  0  0  0  0  0  0  0  0  0  0
   18.6630    9.2660   -2.3510 N   0  0  0  0  0  0  0  0  0  0  0  0
  1  3  1  0
  2  3  1  0
M  CHG  1   3   1
M  END
>  <Pose ID>  (15)
55

>  <Score>  (15)
-10.706586599349976

$$$$

     RDKit          3D

  3  2  0  0  0  0  0  0  0  0999 V2000
   17.3000    9.7080   -2.5040 C   0  0  0  0  0  0  0  0  0  0  0  0
   17.6300   10.1380   -3.5840 O   0  0  0  0  0  0  0  0  0  0  0  0
   17.0120   10.6260   -1.3930 N   0  0  0  0  0  0  0  0  0  0  0  0
  1  2  2  0
  1  3  1  0
M  END
>  <Pose ID>  (16)
184

>  <Score>  (16)
-10.571466445922852

$$$$

     RDKit          3D

  3  2  0  0  0  0  0  0  0  0999 V2000
   26.0720    7.6100   -8.7220 C   0  0  0  0  0  0  0  0  0  0  0  0
   25.6210    8.9950   -8.7050 N   0  0  0  0  0  0  0  0  0  0  0  0
   27.1870    7.0630   -9.4850 N   0  0  0  0  0  0  0  0  0  0  0  0
  1  3  2  0
  1  2  1  0
M  END
>  <Pose ID>  (17)
176

>  <Score>  (17)
-10.530567646026611

$$$$

     RDKit          3D

  3  2  0  0  0  0  0  0  0  0999 V2000
   25.9040    7.9080   -8.7810 C   0  0  0  0  0  0  0  0  0  0  0  0
   26.9810    7.2030   -9.1090 N   0  0  0  0  0  0  0  0  0  0  0  0
   25.9180    9.1760   -9.3690 N   0  0  0  0  0  0  0  0  0  0  0  0
  1  3  1  0
  1  2  2  0
M  END
>  <Pose ID>  (18)
238

>  <Score>  (18)
-10.477208852767944

$$$$

     RDKit          3D

  3  2  0  0  0  0  0  0  0  0999 V2000
   27.9650   11.9460  -12.1310 C   0  0  0  0  0  0  0  0  0  0  0  0
   28.1990   13.2130  -12.8090 C   0  0  0  0  0  0  0  0  0  0  0  0
   29.0220   13.3200  -13.7560 O   0  0  0  0  0  0  0  0  0  0  0  0
  1  2  1  0
  2  3  2  0
M  END
>  <Pose ID>  (19)
148

>  <Score>  (19)
-10.448273658752441

$$$$

     RDKit          3D

  3  2  0  0  0  0  0  0  0  0999 V2000
   17.8790   10.3950   -5.3450 O   0  0  0  0  0  0  0  0  0  0  0  0
   17.1990   10.4760   -4.0560 S   0  0  0  0  0  0  0  0  0  0  0  0
   15.9120    9.8240   -3.8300 O   0  0  0  0  0  0  0  0  0  0  0  0
  1  2  2  0
  2  3  2  0
M  END
>  <Pose ID>  (20)
99

>  <Score>  (20)
-10.350284814834595

$$$$

     RDKit          3D

  3  2  0  0  0  0  0  0  0  0999 V2000
   27.9290    8.1490  -10.4460 C   0  0  0  0  0  0  0  0  0  0  0  0
   27.3710    7.1540   -9.7010 N   0  0  0  0  0  0  0  0  0  0  0  0
   29.0100    7.8410  -11.2870 N   0  0  0  0  0  0  0  0  0  0  0  0
  1  3  1  0
  1  2  2  0
M  END
>  <Pose ID>  (21)
274

>  <Score>  (21)
-10.17861819267273

$$$$

     RDKit          3D

  3  2  0  0  0  0  0  0  0  0999 V2000
   25.7040   13.7930   -5.6310 C   0  0  0  0  0  0  0  0  0  0  0  0
   26.8300   14.1320   -6.6270 C   0  0  0  0  0  0  0  0  0  0  0  0
   25.6930   14.7870   -4.5480 N   0  0  0  0  0  0  0  0  0  0  0  0
  3  1  1  0
  1  2  1  0
M  CHG  1   3   1
M  END
>  <Pose ID>  (22)
9

>  <Score>  (22)
-10.169227123260498

$$$$

     RDKit          3D

  3  2  0  0  0  0  0  0  0  0999 V2000
   28.6580    7.7800  -10.9700 N   0  0  0  0  0  0  0  0  0  0  0  0
   27.6530    8.0510  -10.1070 C   0  0  0  0  0  0  0  0  0  0  0  0
   27.2950    7.2140   -9.2930 O   0  0  0  0  0  0  0  0  0  0  0  0
  1  2  1  0
  2  3  2  0
M  END
>  <Pose ID>  (23)
288

>  <Score>  (23)
-10.167943239212036

$$$$

     RDKit          3D

  3  2  0  0  0  0  0  0  0  0999 V2000
   27.6830    9.1300  -10.4950 C   0  0  0  0  0  0  0  0  0  0  0  0
   27.0840    8.1310   -9.6210 C   0  0  0  0  0  0  0  0  0  0  0  0
   27.3830    6.9100   -9.7020 O   0  0  0  0  0  0  0  0  0  0  0  0
  1  2  1  0
  2  3  2  0
M  END
>  <Pose ID>  (24)
149

>  <Score>  (24)
-10.12962007522583

$$$$

     RDKit          3D

  3  2  0  0  0  0  0  0  0  0999 V2000
   29.3090   10.5550  -12.4550 C   0  0  0  0  0  0  0  0  0  0  0  0
   28.0490   11.1110  -12.6500 C   0  0  0  0  0  0  0  0  0  0  0  0
   26.9370   10.3720  -12.3680 O   0  0  0  0  0  0  0  0  0  0  0  0
  1  2  2  0
  2  3  1  0
M  END
>  <Pose ID>  (25)
227

>  <Score>  (25)
-10.081007242202759

$$$$

     RDKit          3D

  3  2  0  0  0  0  0  0  0  0999 V2000
   28.7760    9.2200  -12.0290 C   0  0  0  0  0  0  0  0  0  0  0  0
   28.9250    7.9370  -11.3200 N   0  0  0  0  0  0  0  0  0  0  0  0
   27.9950    7.9760  -10.2170 N   0  0  0  0  0  0  0  0  0  0  0  0
  1  2  1  0
  2  3  1  0
M  END
>  <Pose ID>  (26)
251

>  <Score>  (26)
-10.07419466972351

$$$$

     RDKit          3D

  3  2  0  0  0  0  0  0  0  0999 V2000
   27.5550    9.0530  -10.3200 C   0  0  0  0  0  0  0  0  0  0  0  0
   28.4840    8.8370  -11.3320 C   0  0  0  0  0  0  0  0  0  0  0  0
   29.1550    7.6510  -11.3860 O   0  0  0  0  0  0  0  0  0  0  0  0
  1  2  2  0
  2  3  1  0
M  END
>  <Pose ID>  (27)
228

>  <Score>  (27)
-10.053109645843506

$$$$

     RDKit          3D

  3  2  0  0  0  0  0  0  0  0999 V2000
   26.7620    9.8510  -10.3570 C   0  0  0  0  0  0  0  0  0  0  0  0
   27.4460    7.7690   -9.7320 C   0  0  0  0  0  0  0  0  0  0  0  0
   27.8340    8.9080  -10.5150 O   0  0  0  0  0  0  0  0  0  0  0  0
  1  3  1  0
  2  3  1  0
M  END
>  <Pose ID>  (28)
131

>  <Score>  (28)
-9.974173784255981

$$$$

     RDKit          3D

  3  2  0  0  0  0  0  0  0  0999 V2000
   28.7510   12.7660  -11.4830 C   0  0  0  0  0  0  0  0  0  0  0  0
   29.6390   13.2040  -10.7920 O   0  0  0  0  0  0  0  0  0  0  0  0
   28.8400   12.8430  -12.9490 N   0  0  0  0  0  0  0  0  0  0  0  0
  1  3  1  0
  1  2  2  0
M  END
>  <Pose ID>  (29)
185

>  <Score>  (29)
-9.953222274780273

$$$$

     RDKit          3D

  3  2  0  0  0  0  0  0  0  0999 V2000
   26.3870    9.6370   -7.5310 C   0  0  0  0  0  0  0  0  0  0  0  0
   25.0270    8.0510   -6.6200 C   0  0  0  0  0  0  0  0  0  0  0  0
   26.2910    8.2250   -7.2790 O   0  0  0  0  0  0  0  0  0  0  0  0
  1  3  1  0
  2  3  1  0
M  END
>  <Pose ID>  (30)
132

>  <Score>  (30)
-9.890054941177368

$$$$

     RDKit          3D

  3  2  0  0  0  0  0  0  0  0999 V2000
   27.4450    9.7540  -10.2110 C   0  0  0  0  0  0  0  0  0  0  0  0
   28.1940    9.3130  -11.3150 C   0  0  0  0  0  0  0  0  0  0  0  0
   28.8440    7.9400  -11.2920 N   0  0  0  0  0  0  0  0  0  0  0  0
  1  2  2  0
  2  3  1  0
M  END
>  <Pose ID>  (31)
75

>  <Score>  (31)
-9.866233110427856

$$$$

     RDKit          3D

  3  2  0  0  0  0  0  0  0  0999 V2000
   28.8470    8.6600  -11.7380 C   0  0  0  0  0  0  0  0  0  0  0  0
   28.3810    8.0170  -10.6350 N   0  0  0  0  0  0  0  0  0  0  0  0
   27.4270    8.6400   -9.8980 C   0  0  0  0  0  0  0  0  0  0  0  0
  3  2  2  0
  2  1  1  0
M  END
>  <Pose ID>  (32)
158

>  <Score>  (32)
-9.762280464172363

$$$$

     RDKit          3D

  3  2  0  0  0  0  0  0  0  0999 V2000
   28.3970    8.1660  -10.8100 C   0  0  0  0  0  0  0  0  0  0  0  0
   27.6250   10.2300  -11.3900 C   0  0  0  0  0  0  0  0  0  0  0  0
   27.4100    9.1510  -10.4680 O   0  0  0  0  0  0  0  0  0  0  0  0
  1  3  1  0
  2  3  1  0
M  END
>  <Pose ID>  (33)
133

>  <Score>  (33)
-9.7305588722229

$$$$

     RDKit          3D

  3  2  0  0  0  0  0  0  0  0999 V2000
   29.9850   12.4100  -13.1050 C   0  0  0  0  0  0  0  0  0  0  0  0
   28.5040   12.7030  -13.3250 C   0  0  0  0  0  0  0  0  0  0  0  0
   30.8890   13.0680  -13.6030 O   0  0  0  0  0  0  0  0  0  0  0  0
  1  3  2  0
  1  2  1  0
M  END
>  <Pose ID>  (34)
124

>  <Score>  (34)
-9.671888589859009

$$$$

     RDKit          3D

  3  2  0  0  0  0  0  0  0  0999 V2000
   24.6090    7.3730   -2.0810 O   0  0  0  0  0  0  0  0  0  0  0  0
   23.4780    8.2940   -2.1470 S   0  0  0  0  0  0  0  0  0  0  0  0
   23.1970    9.2380   -1.0700 O   0  0  0  0  0  0  0  0  0  0  0  0
  1  2  2  0
  2  3  2  0
M  END
>  <Pose ID>  (35)
100

>  <Score>  (35)
-9.569847822189331

$$$$

     RDKit          3D

  3  2  0  0  0  0  0  0  0  0999 V2000
   22.3470   14.0180   -4.4990 C   0  0  0  0  0  0  0  0  0  0  0  0
   22.2230   15.8090   -2.8880 C   0  0  0  0  0  0  0  0  0  0  0  0
   22.2140   14.3830   -3.1090 O   0  0  0  0  0  0  0  0  0  0  0  0
  1  3  1  0
  2  3  1  0
M  END
>  <Pose ID>  (36)
115

>  <Score>  (36)
-9.518537998199463

$$$$

     RDKit          3D

  3  2  0  0  0  0  0  0  0  0999 V2000
   25.3820    8.3060   -6.9880 C   0  0  0  0  0  0  0  0  0  0  0  0
   25.4420    9.6240   -6.8300 N   0  0  0  0  0  0  0  0  0  0  0  0
   26.5600    7.7970   -7.5400 N   0  0  0  0  0  0  0  0  0  0  0  0
  1  3  1  0
  1  2  2  0
M  END
>  <Pose ID>  (37)
239

>  <Score>  (37)
-9.493065595626831

$$$$

     RDKit          3D

  3  2  0  0  0  0  0  0  0  0999 V2000
   27.7930    8.0280  -10.0210 C   0  0  0  0  0  0  0  0  0  0  0  0
   27.3030    6.9360   -9.7640 O   0  0  0  0  0  0  0  0  0  0  0  0
   27.5660    8.9800   -9.3260 O   0  0  0  0  0  0  0  0  0  0  0  0
  1  2  2  0
  1  3  1  0
M  CHG  1   3  -1
M  END
>  <Pose ID>  (38)
88

>  <Score>  (38)
-9.454046726226807

$$$$

     RDKit          3D

  3  2  0  0  0  0  0  0  0  0999 V2000
   27.1160    9.6320   -7.1300 O   0  0  0  0  0  0  0  0  0  0  0  0
   26.3260    8.8720   -8.1240 S   0  0  0  0  0  0  0  0  0  0  0  0
   25.5990    7.5930   -7.1750 N   0  0  0  0  0  0  0  0  0  0  0  0
  1  2  2  0
  2  3  1  0
M  END
>  <Pose ID>  (39)
196

>  <Score>  (39)
-9.439000844955444

$$$$

     RDKit          3D

  3  2  0  0  0  0  0  0  0  0999 V2000
   26.5270    7.3390   -9.2770 C   0  0  0  0  0  0  0  0  0  0  0  0
   26.6770    8.4860   -7.3780 C   0  0  0  0  0  0  0  0  0  0  0  0
   26.0390    7.4090   -7.9900 N   0  0  0  0  0  0  0  0  0  0  0  0
  1  3  1  0
  2  3  1  0
M  END
>  <Pose ID>  (40)
61

>  <Score>  (40)
-9.433119177818298

$$$$

     RDKit          3D

  3  2  0  0  0  0  0  0  0  0999 V2000
   27.1980    8.7070   -9.3000 C   0  0  0  0  0  0  0  0  0  0  0  0
   28.2840    8.8160   -8.7810 O   0  0  0  0  0  0  0  0  0  0  0  0
   26.5880    9.8480   -9.9980 N   0  0  0  0  0  0  0  0  0  0  0  0
  1  3  1  0
  1  2  2  0
M  END
>  <Pose ID>  (41)
186

>  <Score>  (41)
-9.421952247619629

$$$$

     RDKit          3D

  3  2  0  0  0  0  0  0  0  0999 V2000
   29.4990   10.7670  -12.5430 C   0  0  0  0  0  0  0  0  0  0  0  0
   28.5520    9.7000  -12.2490 N   0  0  0  0  0  0  0  0  0  0  0  0
   29.5150   12.1050  -11.9660 N   0  0  0  0  0  0  0  0  0  0  0  0
  1  2  1  0
  1  3  2  0
M  END
>  <Pose ID>  (42)
177

>  <Score>  (42)
-9.351634740829468

$$$$

     RDKit          3D

  3  2  0  0  0  0  0  0  0  0999 V2000
   30.0050   11.0280  -12.6550 C   0  0  0  0  0  0  0  0  0  0  0  0
   29.7340   12.2940  -13.1640 C   0  0  0  0  0  0  0  0  0  0  0  0
   30.7680   13.1270  -13.4750 O   0  0  0  0  0  0  0  0  0  0  0  0
  1  2  2  0
  2  3  1  0
M  END
>  <Pose ID>  (43)
229

>  <Score>  (43)
-9.346324920654297

$$$$

     RDKit          3D

  3  2  0  0  0  0  0  0  0  0999 V2000
   29.8780   12.8340  -13.1430 C   0  0  0  0  0  0  0  0  0  0  0  0
   28.3750   12.8040  -13.4570 C   0  0  0  0  0  0  0  0  0  0  0  0
   30.6520   13.4480  -14.1760 O   0  0  0  0  0  0  0  0  0  0  0  0
  1  3  1  0
  1  2  1  0
M  END
>  <Pose ID>  (44)
204

>  <Score>  (44)
-9.274138808250427

$$$$

     RDKit          3D

  3  2  0  0  0  0  0  0  0  0999 V2000
   24.2010   16.8490   -4.0280 C   0  0  0  0  0  0  0  0  0  0  0  0
   23.1350   17.4880   -4.9290 C   0  0  0  0  0  0  0  0  0  0  0  0
   23.9490   17.0640   -2.5960 N   0  0  0  0  0  0  0  0  0  0  0  0
  1  2  1  0
  1  3  1  0
M  CHG  1   3   1
M  END
>  <Pose ID>  (45)
48

>  <Score>  (45)
-9.241820096969604

$$$$

     RDKit          3D

  3  2  0  0  0  0  0  0  0  0999 V2000
   29.4470   11.8480  -12.9550 C   0  0  0  0  0  0  0  0  0  0  0  0
   27.9970   11.8010  -12.9480 C   0  0  0  0  0  0  0  0  0  0  0  0
   27.1590   12.6870  -13.2290 O   0  0  0  0  0  0  0  0  0  0  0  0
  1  2  1  0
  2  3  2  0
M  END
>  <Pose ID>  (46)
140

>  <Score>  (46)
-9.161663293838501

$$$$

     RDKit          3D

  3  2  0  0  0  0  0  0  0  0999 V2000
   27.2360    9.1240  -10.2820 N   0  0  0  0  0  0  0  0  0  0  0  0
   27.3010    8.0690   -9.4370 C   0  0  0  0  0  0  0  0  0  0  0  0
   27.4790    6.9410   -9.8710 O   0  0  0  0  0  0  0  0  0  0  0  0
  1  2  1  0
  2  3  2  0
M  END
>  <Pose ID>  (47)
289

>  <Score>  (47)
-9.155154943466187

$$$$

     RDKit          3D

  3  2  0  0  0  0  0  0  0  0999 V2000
   27.9340    8.2780  -10.3920 C   0  0  0  0  0  0  0  0  0  0  0  0
   28.8950    8.3920  -11.5710 C   0  0  0  0  0  0  0  0  0  0  0  0
   27.6300    7.2170   -9.8620 O   0  0  0  0  0  0  0  0  0  0  0  0
  1  2  1  0
  1  3  2  0
M  END
>  <Pose ID>  (48)
125

>  <Score>  (48)
-9.148812532424927

$$$$

     RDKit          3D

  3  2  0  0  0  0  0  0  0  0999 V2000
   27.4240    8.1160   -9.6460 C   0  0  0  0  0  0  0  0  0  0  0  0
   28.1820    7.3410  -10.5010 N   0  0  0  0  0  0  0  0  0  0  0  0
   26.9060    7.5280   -8.3440 N   0  0  0  0  0  0  0  0  0  0  0  0
  1  2  1  0
  1  3  1  0
M  END
>  <Pose ID>  (49)
27

>  <Score>  (49)
-9.114982604980469

$$$$

     RDKit          3D

  3  2  0  0  0  0  0  0  0  0999 V2000
   29.1470   13.2420  -13.4390 C   0  0  0  0  0  0  0  0  0  0  0  0
   29.9410   14.2960  -11.5230 N   0  0  0  0  0  0  0  0  0  0  0  0
   30.3660   13.6640  -12.7490 N   0  0  0  0  0  0  0  0  0  0  0  0
  1  3  2  0
  2  3  1  0
M  END
>  <Pose ID>  (50)
262

>  <Score>  (50)
-9.072393298149109

$$$$

     RDKit          3D

  3  2  0  0  0  0  0  0  0  0999 V2000
   27.9740   11.7080  -12.8930 C   0  0  0  0  0  0  0  0  0  0  0  0
   29.4790   11.8950  -13.0630 C   0  0  0  0  0  0  0  0  0  0  0  0
   27.1600   12.6170  -12.9950 O   0  0  0  0  0  0  0  0  0  0  0  0
  1  2  1  0
  1  3  2  0
M  END
>  <Pose ID>  (51)
126

>  <Score>  (51)
-9.039485931396484

$$$$

     RDKit          3D

  3  2  0  0  0  0  0  0  0  0999 V2000
   28.3350   13.6600  -12.7730 C   0  0  0  0  0  0  0  0  0  0  0  0
   29.6850   13.6210  -12.9600 N   0  0  0  0  0  0  0  0  0  0  0  0
   27.6970   14.9060  -12.6850 N   0  0  0  0  0  0  0  0  0  0  0  0
  1  2  2  0
  1  3  1  0
M  END
>  <Pose ID>  (52)
275

>  <Score>  (52)
-9.009978532791138

$$$$

     RDKit          3D

  3  2  0  0  0  0  0  0  0  0999 V2000
   28.1600   11.7270  -11.4500 C   0  0  0  0  0  0  0  0  0  0  0  0
   27.2480   12.7140  -10.8910 C   0  0  0  0  0  0  0  0  0  0  0  0
   26.1820   12.3810  -10.3090 O   0  0  0  0  0  0  0  0  0  0  0  0
  1  2  1  0
  2  3  2  0
M  END
>  <Pose ID>  (53)
150

>  <Score>  (53)
-8.992912769317627

$$$$

     RDKit          3D

  3  2  0  0  0  0  0  0  0  0999 V2000
   29.7390   12.0700  -13.0730 C   0  0  0  0  0  0  0  0  0  0  0  0
   28.4230   12.3940  -13.1520 N   0  0  0  0  0  0  0  0  0  0  0  0
   27.5180   11.4510  -12.7810 C   0  0  0  0  0  0  0  0  0  0  0  0
  1  2  1  0
  2  3  2  0
M  END
>  <Pose ID>  (54)
159

>  <Score>  (54)
-8.966705560684204

$$$$

     RDKit          3D

  3  2  0  0  0  0  0  0  0  0999 V2000
   24.3480    7.2320   -5.5440 C   0  0  0  0  0  0  0  0  0  0  0  0
   25.2350    7.4820   -6.5710 N   0  0  0  0  0  0  0  0  0  0  0  0
   24.5350    6.0110   -4.6590 N   0  0  0  0  0  0  0  0  0  0  0  0
  1  2  1  0
  1  3  1  0
M  END
>  <Pose ID>  (55)
28

>  <Score>  (55)
-8.86436152458191

$$$$

     RDKit          3D

  3  2  0  0  0  0  0  0  0  0999 V2000
   27.2040   12.1850  -11.9220 C   0  0  0  0  0  0  0  0  0  0  0  0
   26.7480   11.8920  -10.6770 N   0  0  0  0  0  0  0  0  0  0  0  0
   26.9730   10.6400  -10.2020 C   0  0  0  0  0  0  0  0  0  0  0  0
  3  2  2  0
  2  1  1  0
M  END
>  <Pose ID>  (56)
160

>  <Score>  (56)
-8.85334038734436

$$$$

     RDKit          3D

  3  2  0  0  0  0  0  0  0  0999 V2000
   25.8850    8.6540   -9.0480 C   0  0  0  0  0  0  0  0  0  0  0  0
   27.4300    9.3780  -10.4730 C   0  0  0  0  0  0  0  0  0  0  0  0
   26.1950    9.6850   -9.9080 N   0  0  0  0  0  0  0  0  0  0  0  0
  1  3  1  0
  2  3  1  0
M  END
>  <Pose ID>  (57)
62

>  <Score>  (57)
-8.840733051300049

$$$$

     RDKit          3D

  3  2  0  0  0  0  0  0  0  0999 V2000
   28.3670    8.0470  -10.6970 C   0  0  0  0  0  0  0  0  0  0  0  0
   27.2500    8.6390   -9.9720 N   0  0  0  0  0  0  0  0  0  0  0  0
   26.8100    9.9270  -10.4490 N   0  0  0  0  0  0  0  0  0  0  0  0
  1  2  1  0
  2  3  2  0
M  END
>  <Pose ID>  (58)
167

>  <Score>  (58)
-8.75134015083313

$$$$

     RDKit          3D

  3  2  0  0  0  0  0  0  0  0999 V2000
   26.6010    9.7790   -9.7110 C   0  0  0  0  0  0  0  0  0  0  0  0
   27.1990   10.8940  -10.2630 N   0  0  0  0  0  0  0  0  0  0  0  0
   25.1940    9.8740   -9.1440 N   0  0  0  0  0  0  0  0  0  0  0  0
  1  2  1  0
  1  3  1  0
M  END
>  <Pose ID>  (59)
29

>  <Score>  (59)
-8.72179102897644

$$$$

     RDKit          3D

  3  2  0  0  0  0  0  0  0  0999 V2000
   27.1740    9.8330  -10.4710 C   0  0  0  0  0  0  0  0  0  0  0  0
   27.5680   10.9580  -11.3070 C   0  0  0  0  0  0  0  0  0  0  0  0
   26.9520   12.0560  -11.2810 O   0  0  0  0  0  0  0  0  0  0  0  0
  1  2  1  0
  2  3  2  0
M  END
>  <Pose ID>  (60)
151

>  <Score>  (60)
-8.626384258270264

$$$$

     RDKit          3D

  3  2  0  0  0  0  0  0  0  0999 V2000
   26.8240   10.1830   -8.2570 C   0  0  0  0  0  0  0  0  0  0  0  0
   27.1310    8.8290   -8.3350 C   0  0  0  0  0  0  0  0  0  0  0  0
   27.0040    8.0460   -7.2230 O   0  0  0  0  0  0  0  0  0  0  0  0
  1  2  2  0
  2  3  1  0
M  END
>  <Pose ID>  (61)
230

>  <Score>  (61)
-8.535109519958496

$$$$

     RDKit          3D

  3  2  0  0  0  0  0  0  0  0999 V2000
   25.5120   14.2880   -6.9160 C   0  0  0  0  0  0  0  0  0  0  0  0
   24.8730   13.0890   -6.2010 C   0  0  0  0  0  0  0  0  0  0  0  0
   25.2040   15.5380   -6.2950 O   0  0  0  0  0  0  0  0  0  0  0  0
  1  3  1  0
  1  2  1  0
M  END
>  <Pose ID>  (62)
205

>  <Score>  (62)
-8.410845935344696

$$$$

     RDKit          3D

  3  2  0  0  0  0  0  0  0  0999 V2000
   25.9620    8.3520   -8.8600 C   0  0  0  0  0  0  0  0  0  0  0  0
   25.7700    9.6560   -9.3470 C   0  0  0  0  0  0  0  0  0  0  0  0
   24.6040   10.4900   -8.8440 N   0  0  0  0  0  0  0  0  0  0  0  0
  1  2  2  0
  2  3  1  0
M  END
>  <Pose ID>  (63)
76

>  <Score>  (63)
-8.395205974578857

$$$$

     RDKit          3D

  3  2  0  0  0  0  0  0  0  0999 V2000
   27.5820   10.1180  -11.3810 C   0  0  0  0  0  0  0  0  0  0  0  0
   28.4900    9.5500  -12.1680 N   0  0  0  0  0  0  0  0  0  0  0  0
   27.2810    9.3150  -10.2780 N   0  0  0  0  0  0  0  0  0  0  0  0
  1  2  2  0
  1  3  1  0
M  END
>  <Pose ID>  (64)
240

>  <Score>  (64)
-8.389951825141907

$$$$

     RDKit          3D

  3  2  0  0  0  0  0  0  0  0999 V2000
   17.3100   12.5690   -4.7150 C   0  0  0  0  0  0  0  0  0  0  0  0
   18.0260   10.2850   -4.9020 C   0  0  0  0  0  0  0  0  0  0  0  0
   17.4260   11.4170   -5.6210 N   0  0  0  0  0  0  0  0  0  0  0  0
  1  3  1  0
  2  3  1  0
M  CHG  1   3   1
M  END
>  <Pose ID>  (65)
2

>  <Score>  (65)
-8.358520150184631

$$$$

     RDKit          3D

  3  2  0  0  0  0  0  0  0  0999 V2000
   28.0890    9.2590  -11.3370 C   0  0  0  0  0  0  0  0  0  0  0  0
   27.4120   11.3050  -11.8820 C   0  0  0  0  0  0  0  0  0  0  0  0
   27.0930   10.1860  -11.1170 N   0  0  0  0  0  0  0  0  0  0  0  0
  1  3  1  0
  2  3  1  0
M  END
>  <Pose ID>  (66)
63

>  <Score>  (66)
-8.310140132904053

$$$$

     RDKit          3D

  3  2  0  0  0  0  0  0  0  0999 V2000
   22.5000    9.9570   -2.1850 C   0  0  0  0  0  0  0  0  0  0  0  0
   23.2540    8.6410   -1.9180 C   0  0  0  0  0  0  0  0  0  0  0  0
   22.5430   10.7990   -0.9820 N   0  0  0  0  0  0  0  0  0  0  0  0
  3  1  1  0
  1  2  1  0
M  CHG  1   3   1
M  END
>  <Pose ID>  (67)
10

>  <Score>  (67)
-8.305445969104767

$$$$

     RDKit          3D

  3  2  0  0  0  0  0  0  0  0999 V2000
   27.6200    8.5150  -10.2170 C   0  0  0  0  0  0  0  0  0  0  0  0
   28.7020    7.7810  -10.9910 N   0  0  0  0  0  0  0  0  0  0  0  0
   27.4220    9.8650  -10.4190 N   0  0  0  0  0  0  0  0  0  0  0  0
  1  2  1  0
  1  3  1  0
M  END
>  <Pose ID>  (68)
30

>  <Score>  (68)
-8.305124163627625

$$$$

     RDKit          3D

  3  2  0  0  0  0  0  0  0  0999 V2000
   25.7570    9.7140   -9.1250 C   0  0  0  0  0  0  0  0  0  0  0  0
   25.9190    7.6810   -8.1090 C   0  0  0  0  0  0  0  0  0  0  0  0
   25.3360    8.9840   -7.9610 O   0  0  0  0  0  0  0  0  0  0  0  0
  1  3  1  0
  2  3  1  0
M  END
>  <Pose ID>  (69)
134

>  <Score>  (69)
-8.278607368469238

$$$$

     RDKit          3D

  3  2  0  0  0  0  0  0  0  0999 V2000
   17.1460    9.8600   -3.6830 C   0  0  0  0  0  0  0  0  0  0  0  0
   15.9560    9.8390   -3.8320 O   0  0  0  0  0  0  0  0  0  0  0  0
   17.6470    9.5540   -2.6100 O   0  0  0  0  0  0  0  0  0  0  0  0
  1  2  2  0
  1  3  1  0
M  CHG  1   3  -1
M  END
>  <Pose ID>  (70)
89

>  <Score>  (70)
-8.259280323982239

$$$$

     RDKit          3D

  3  2  0  0  0  0  0  0  0  0999 V2000
   24.5730    9.5440   -6.2860 C   0  0  0  0  0  0  0  0  0  0  0  0
   25.3540    7.4490   -6.9290 N   0  0  0  0  0  0  0  0  0  0  0  0
   25.5060    8.8620   -7.1830 N   0  0  0  0  0  0  0  0  0  0  0  0
  1  3  2  0
  2  3  1  0
M  END
>  <Pose ID>  (71)
263

>  <Score>  (71)
-8.188429057598114

$$$$

     RDKit          3D

  3  2  0  0  0  0  0  0  0  0999 V2000
   24.6060    7.6610   -6.2530 C   0  0  0  0  0  0  0  0  0  0  0  0
   25.8240    7.5390   -7.0710 N   0  0  0  0  0  0  0  0  0  0  0  0
   26.2450    8.8870   -7.3690 N   0  0  0  0  0  0  0  0  0  0  0  0
  1  2  1  0
  2  3  1  0
M  END
>  <Pose ID>  (72)
252

>  <Score>  (72)
-8.136403203010559

$$$$

     RDKit          3D

  3  2  0  0  0  0  0  0  0  0999 V2000
   25.9510    9.3640   -9.8410 C   0  0  0  0  0  0  0  0  0  0  0  0
   26.8710   10.0580  -10.7580 N   0  0  0  0  0  0  0  0  0  0  0  0
   26.7440   11.4660  -10.4660 N   0  0  0  0  0  0  0  0  0  0  0  0
  1  2  1  0
  2  3  1  0
M  END
>  <Pose ID>  (73)
253

>  <Score>  (73)
-8.134696006774902

$$$$

     RDKit          3D

  3  2  0  0  0  0  0  0  0  0999 V2000
   23.1220   10.9030   -5.5270 C   0  0  0  0  0  0  0  0  0  0  0  0
   24.1100   10.5040   -6.4210 C   0  0  0  0  0  0  0  0  0  0  0  0
   24.7390   11.4400   -7.1870 O   0  0  0  0  0  0  0  0  0  0  0  0
  1  2  2  0
  2  3  1  0
M  END
>  <Pose ID>  (74)
231

>  <Score>  (74)
-8.129127383232117

$$$$

     RDKit          3D

  3  2  0  0  0  0  0  0  0  0999 V2000
   26.9330    8.2450   -9.4080 C   0  0  0  0  0  0  0  0  0  0  0  0
   28.0470    7.7620  -10.2390 N   0  0  0  0  0  0  0  0  0  0  0  0
   26.4850    7.4430   -8.1960 N   0  0  0  0  0  0  0  0  0  0  0  0
  1  2  2  0
  1  3  1  0
M  CHG  1   2   1
M  END
>  <Pose ID>  (75)
18

>  <Score>  (75)
-8.128127336502075

$$$$

     RDKit          3D

  3  2  0  0  0  0  0  0  0  0999 V2000
   25.6340    9.7190   -9.1410 C   0  0  0  0  0  0  0  0  0  0  0  0
   25.7390    8.4660   -8.6120 N   0  0  0  0  0  0  0  0  0  0  0  0
   24.5530   10.5270   -8.7600 N   0  0  0  0  0  0  0  0  0  0  0  0
  1  3  1  0
  1  2  2  0
M  END
>  <Pose ID>  (76)
276

>  <Score>  (76)
-8.121865391731262

$$$$

     RDKit          3D

  3  2  0  0  0  0  0  0  0  0999 V2000
   27.2330   10.8120  -10.1590 C   0  0  0  0  0  0  0  0  0  0  0  0
   27.0150   10.5430   -8.7450 C   0  0  0  0  0  0  0  0  0  0  0  0
   26.5990   11.4330   -7.9540 O   0  0  0  0  0  0  0  0  0  0  0  0
  1  2  1  0
  2  3  2  0
M  END
>  <Pose ID>  (77)
152

>  <Score>  (77)
-8.055973529815674

$$$$

     RDKit          3D

  3  2  0  0  0  0  0  0  0  0999 V2000
   27.3020   10.5650  -10.2900 C   0  0  0  0  0  0  0  0  0  0  0  0
   27.6350    9.3380  -10.7670 N   0  0  0  0  0  0  0  0  0  0  0  0
   27.6790    8.3090   -9.8830 C   0  0  0  0  0  0  0  0  0  0  0  0
  3  2  2  0
  2  1  1  0
M  END
>  <Pose ID>  (78)
161

>  <Score>  (78)
-8.049098372459412

$$$$

     RDKit          3D

  3  2  0  0  0  0  0  0  0  0999 V2000
   23.9600    6.5440   -3.8610 C   0  0  0  0  0  0  0  0  0  0  0  0
   23.2720    7.6780   -3.9390 N   0  0  0  0  0  0  0  0  0  0  0  0
   24.6240    6.2600   -5.0580 N   0  0  0  0  0  0  0  0  0  0  0  0
  1  3  1  0
  1  2  2  0
M  END
>  <Pose ID>  (79)
241

>  <Score>  (79)
-8.043197393417358

$$$$

     RDKit          3D

  3  2  0  0  0  0  0  0  0  0999 V2000
   17.6890   10.8710   -2.3270 O   0  0  0  0  0  0  0  0  0  0  0  0
   17.2650    9.8780   -3.3090 S   0  0  0  0  0  0  0  0  0  0  0  0
   15.9190    9.8880   -3.8750 O   0  0  0  0  0  0  0  0  0  0  0  0
  1  2  2  0
  2  3  2  0
M  END
>  <Pose ID>  (80)
101

>  <Score>  (80)
-8.031978189945221

$$$$

     RDKit          3D

  3  2  0  0  0  0  0  0  0  0999 V2000
   27.4700   13.5020  -12.2520 C   0  0  0  0  0  0  0  0  0  0  0  0
   27.2840   12.5260  -13.4230 C   0  0  0  0  0  0  0  0  0  0  0  0
   28.2540   14.6460  -12.5970 O   0  0  0  0  0  0  0  0  0  0  0  0
  1  2  1  0
  1  3  1  0
M  END
>  <Pose ID>  (81)
206

>  <Score>  (81)
-8.010238647460938

$$$$

     RDKit          3D

  3  2  0  0  0  0  0  0  0  0999 V2000
   27.5160    9.1350  -10.3770 C   0  0  0  0  0  0  0  0  0  0  0  0
   26.9020    8.0810   -9.5920 C   0  0  0  0  0  0  0  0  0  0  0  0
   27.1670    6.8580   -9.5340 O   0  0  0  0  0  0  0  0  0  0  0  0
  1  2  1  0
  2  3  2  0
M  END
>  <Pose ID>  (82)
141

>  <Score>  (82)
-8.003947973251343

$$$$

     RDKit          3D

  3  2  0  0  0  0  0  0  0  0999 V2000
   27.4020   11.3730  -11.6560 C   0  0  0  0  0  0  0  0  0  0  0  0
   27.3800   10.0450  -11.1990 C   0  0  0  0  0  0  0  0  0  0  0  0
   26.2080    9.5470  -10.3700 N   0  0  0  0  0  0  0  0  0  0  0  0
  1  2  2  0
  2  3  1  0
M  END
>  <Pose ID>  (83)
77

>  <Score>  (83)
-8.00169312953949

$$$$

     RDKit          3D

  3  2  0  0  0  0  0  0  0  0999 V2000
   28.5110   11.0800  -12.3090 C   0  0  0  0  0  0  0  0  0  0  0  0
   27.9290    9.9020  -11.6820 C   0  0  0  0  0  0  0  0  0  0  0  0
   26.7260    9.8710  -11.3070 O   0  0  0  0  0  0  0  0  0  0  0  0
  1  2  1  0
  2  3  2  0
M  END
>  <Pose ID>  (84)
153

>  <Score>  (84)
-7.976315498352051

$$$$

     RDKit          3D

  3  2  0  0  0  0  0  0  0  0999 V2000
   27.8970   11.5650  -11.6140 N   0  0  0  0  0  0  0  0  0  0  0  0
   27.6830   10.2420  -11.4230 C   0  0  0  0  0  0  0  0  0  0  0  0
   26.6490    9.8520  -10.9030 O   0  0  0  0  0  0  0  0  0  0  0  0
  1  2  1  0
  2  3  2  0
M  END
>  <Pose ID>  (85)
290

>  <Score>  (85)
-7.970335960388184

$$$$

     RDKit          3D

  3  2  0  0  0  0  0  0  0  0999 V2000
   18.0370   10.2240   -4.9420 C   0  0  0  0  0  0  0  0  0  0  0  0
   17.1020    9.7490   -3.9390 C   0  0  0  0  0  0  0  0  0  0  0  0
   15.9010   10.0490   -3.7480 O   0  0  0  0  0  0  0  0  0  0  0  0
  1  2  1  0
  2  3  2  0
M  END
>  <Pose ID>  (86)
142

>  <Score>  (86)
-7.8828903320245445

$$$$

     RDKit          3D

  3  2  0  0  0  0  0  0  0  0999 V2000
   27.5120   10.0490  -11.2850 C   0  0  0  0  0  0  0  0  0  0  0  0
   27.2960   11.1760  -10.3970 C   0  0  0  0  0  0  0  0  0  0  0  0
   27.2060   11.2130   -9.1480 O   0  0  0  0  0  0  0  0  0  0  0  0
  1  2  1  0
  2  3  2  0
M  END
>  <Pose ID>  (87)
143

>  <Score>  (87)
-7.864121675491333

$$$$

     RDKit          3D

  3  2  0  0  0  0  0  0  0  0999 V2000
   29.0720   14.1330   -9.9100 C   0  0  0  0  0  0  0  0  0  0  0  0
   30.1060   14.9470  -10.6700 N   0  0  0  0  0  0  0  0  0  0  0  0
   28.6260   14.5630   -8.6770 N   0  0  0  0  0  0  0  0  0  0  0  0
  1  2  1  0
  1  3  1  0
M  END
>  <Pose ID>  (88)
31

>  <Score>  (88)
-7.818849742412567

$$$$

     RDKit          3D

  3  2  0  0  0  0  0  0  0  0999 V2000
   27.0170    9.5970  -10.4210 C   0  0  0  0  0  0  0  0  0  0  0  0
   25.2380   10.1130   -9.0940 C   0  0  0  0  0  0  0  0  0  0  0  0
   25.8920    9.0130   -9.7450 O   0  0  0  0  0  0  0  0  0  0  0  0
  1  3  1  0
  2  3  1  0
M  END
>  <Pose ID>  (89)
135

>  <Score>  (89)
-7.8101478815078735

$$$$

     RDKit          3D

  3  2  0  0  0  0  0  0  0  0999 V2000
   28.6590   12.7030  -13.3220 N   0  0  0  0  0  0  0  0  0  0  0  0
   29.9610   12.3570  -13.2050 C   0  0  0  0  0  0  0  0  0  0  0  0
   30.8400   13.1360  -13.5400 O   0  0  0  0  0  0  0  0  0  0  0  0
  1  2  1  0
  2  3  2  0
M  END
>  <Pose ID>  (90)
291

>  <Score>  (90)
-7.799393534660339

$$$$

     RDKit          3D

  3  2  0  0  0  0  0  0  0  0999 V2000
   26.0190    7.4490   -9.3890 O   0  0  0  0  0  0  0  0  0  0  0  0
   26.2540    8.8630   -9.1120 S   0  0  0  0  0  0  0  0  0  0  0  0
   25.1500    9.7920   -8.8920 O   0  0  0  0  0  0  0  0  0  0  0  0
  1  2  2  0
  2  3  2  0
M  END
>  <Pose ID>  (91)
102

>  <Score>  (91)
-7.789302825927734

$$$$

     RDKit          3D

  3  2  0  0  0  0  0  0  0  0999 V2000
   26.7460    9.5930   -9.9960 C   0  0  0  0  0  0  0  0  0  0  0  0
   27.2690    8.3270   -9.6850 C   0  0  0  0  0  0  0  0  0  0  0  0
   26.7280    7.5520   -8.4940 N   0  0  0  0  0  0  0  0  0  0  0  0
  1  2  2  0
  2  3  1  0
M  END
>  <Pose ID>  (92)
78

>  <Score>  (92)
-7.779781758785248

$$$$

     RDKit          3D

  3  2  0  0  0  0  0  0  0  0999 V2000
   26.9330   10.5850  -10.2780 C   0  0  0  0  0  0  0  0  0  0  0  0
   26.7700   11.9480  -10.7650 N   0  0  0  0  0  0  0  0  0  0  0  0
   27.7030    9.5190  -10.9050 N   0  0  0  0  0  0  0  0  0  0  0  0
  1  3  2  0
  1  2  1  0
M  END
>  <Pose ID>  (93)
178

>  <Score>  (93)
-7.724511742591858

$$$$

     RDKit          3D

  3  2  0  0  0  0  0  0  0  0999 V2000
   29.5920   13.1100  -10.5640 O   0  0  0  0  0  0  0  0  0  0  0  0
   28.9130   12.7830  -11.8140 S   0  0  0  0  0  0  0  0  0  0  0  0
   28.5460   13.8170  -12.7770 O   0  0  0  0  0  0  0  0  0  0  0  0
  1  2  2  0
  2  3  2  0
M  END
>  <Pose ID>  (94)
103

>  <Score>  (94)
-7.701335461810231

$$$$

     RDKit          3D

  3  2  0  0  0  0  0  0  0  0999 V2000
   27.9720   12.8750   -9.9140 C   0  0  0  0  0  0  0  0  0  0  0  0
   27.3490   11.8930  -10.6600 N   0  0  0  0  0  0  0  0  0  0  0  0
   29.3840   13.3140  -10.2630 N   0  0  0  0  0  0  0  0  0  0  0  0
  1  2  1  0
  1  3  1  0
M  END
>  <Pose ID>  (95)
32

>  <Score>  (95)
-7.675371766090393

$$$$

     RDKit          3D

  3  2  0  0  0  0  0  0  0  0999 V2000
   27.5160   10.4450  -11.5400 C   0  0  0  0  0  0  0  0  0  0  0  0
   28.5510    9.6620  -12.2040 N   0  0  0  0  0  0  0  0  0  0  0  0
   28.8580    8.3930  -11.5920 N   0  0  0  0  0  0  0  0  0  0  0  0
  1  2  1  0
  2  3  2  0
M  END
>  <Pose ID>  (96)
168

>  <Score>  (96)
-7.657706260681152

$$$$

     RDKit          3D

  3  2  0  0  0  0  0  0  0  0999 V2000
   28.1790   10.3350  -11.7640 C   0  0  0  0  0  0  0  0  0  0  0  0
   29.2840    9.9250  -12.3790 N   0  0  0  0  0  0  0  0  0  0  0  0
   28.2110   11.7090  -11.5080 N   0  0  0  0  0  0  0  0  0  0  0  0
  1  2  2  0
  1  3  1  0
M  END
>  <Pose ID>  (97)
242

>  <Score>  (97)
-7.648143291473389

$$$$

     RDKit          3D

  3  2  0  0  0  0  0  0  0  0999 V2000
   26.0630    7.4700   -7.7310 N   0  0  0  0  0  0  0  0  0  0  0  0
   26.8030    7.6300   -8.8330 C   0  0  0  0  0  0  0  0  0  0  0  0
   27.0240    6.7990   -9.6990 O   0  0  0  0  0  0  0  0  0  0  0  0
  1  2  1  0
  2  3  2  0
M  END
>  <Pose ID>  (98)
212

>  <Score>  (98)
-7.646039962302893

$$$$

     RDKit          3D

  3  2  0  0  0  0  0  0  0  0999 V2000
   25.7150   10.6250   -8.1160 N   0  0  0  0  0  0  0  0  0  0  0  0
   26.6500   10.3180   -7.1880 C   0  0  0  0  0  0  0  0  0  0  0  0
   26.8300   11.0510   -6.2270 O   0  0  0  0  0  0  0  0  0  0  0  0
  1  2  1  0
  2  3  2  0
M  END
>  <Pose ID>  (99)
292

>  <Score>  (99)
-7.4934850335121155

$$$$

     RDKit          3D

  3  2  0  0  0  0  0  0  0  0999 V2000
   30.3870   11.5990  -12.9900 C   0  0  0  0  0  0  0  0  0  0  0  0
   30.9060   12.7420  -13.4240 N   0  0  0  0  0  0  0  0  0  0  0  0
   28.9940   11.6650  -12.9000 N   0  0  0  0  0  0  0  0  0  0  0  0
  1  2  2  0
  1  3  1  0
M  END
>  <Pose ID>  (100)
243

>  <Score>  (100)
-7.46988582611084

$$$$

     RDKit          3D

  3  2  0  0  0  0  0  0  0  0999 V2000
   27.5780   13.3740  -12.7720 C   0  0  0  0  0  0  0  0  0  0  0  0
   28.8410   12.6630  -13.2740 C   0  0  0  0  0  0  0  0  0  0  0  0
   27.7890   14.8050  -12.5100 N   0  0  0  0  0  0  0  0  0  0  0  0
  1  2  1  0
  1  3  1  0
M  CHG  1   3   1
M  END
>  <Pose ID>  (101)
49

>  <Score>  (101)
-7.405415207147598

$$$$

     RDKit          3D

  3  2  0  0  0  0  0  0  0  0999 V2000
   27.5810   10.4830  -12.4520 C   0  0  0  0  0  0  0  0  0  0  0  0
   27.3160   11.8090  -12.9950 N   0  0  0  0  0  0  0  0  0  0  0  0
   28.4820   12.5970  -13.3120 N   0  0  0  0  0  0  0  0  0  0  0  0
  1  2  1  0
  2  3  2  0
M  END
>  <Pose ID>  (102)
169

>  <Score>  (102)
-7.3802532106637955

$$$$

     RDKit          3D

  3  2  0  0  0  0  0  0  0  0999 V2000
   28.9620   12.5360  -11.2050 C   0  0  0  0  0  0  0  0  0  0  0  0
   29.1600   11.4600  -12.0870 C   0  0  0  0  0  0  0  0  0  0  0  0
   30.3860   11.4300  -12.9850 N   0  0  0  0  0  0  0  0  0  0  0  0
  1  2  2  0
  2  3  1  0
M  END
>  <Pose ID>  (103)
79

>  <Score>  (103)
-7.34571099281311

$$$$

     RDKit          3D

  3  2  0  0  0  0  0  0  0  0999 V2000
   30.1310   10.2300  -12.4270 C   0  0  0  0  0  0  0  0  0  0  0  0
   28.9610    9.5220  -12.1100 C   0  0  0  0  0  0  0  0  0  0  0  0
   29.0510    8.0960  -11.5930 N   0  0  0  0  0  0  0  0  0  0  0  0
  1  2  2  0
  2  3  1  0
M  END
>  <Pose ID>  (104)
80

>  <Score>  (104)
-7.338143229484558

$$$$

     RDKit          3D

  3  2  0  0  0  0  0  0  0  0999 V2000
   25.9090   13.2770   -8.3380 C   0  0  0  0  0  0  0  0  0  0  0  0
   27.5350   12.2760   -9.4780 C   0  0  0  0  0  0  0  0  0  0  0  0
   27.2780   13.2260   -8.4920 N   0  0  0  0  0  0  0  0  0  0  0  0
  1  3  1  0
  2  3  1  0
M  END
>  <Pose ID>  (105)
64

>  <Score>  (105)
-7.335057377815247

$$$$

     RDKit          3D

  3  2  0  0  0  0  0  0  0  0999 V2000
   17.3800   12.6670   -4.6760 C   0  0  0  0  0  0  0  0  0  0  0  0
   16.7750   13.6610   -6.7740 C   0  0  0  0  0  0  0  0  0  0  0  0
   17.2200   12.4250   -6.1170 N   0  0  0  0  0  0  0  0  0  0  0  0
  1  3  1  0
  2  3  1  0
M  CHG  1   3   1
M  END
>  <Pose ID>  (106)
3

>  <Score>  (106)
-7.327840685844421

$$$$

     RDKit          3D

  3  2  0  0  0  0  0  0  0  0999 V2000
   28.3460   11.0650  -12.5760 C   0  0  0  0  0  0  0  0  0  0  0  0
   27.2410   11.6310  -11.7850 N   0  0  0  0  0  0  0  0  0  0  0  0
   26.8920   10.6300  -10.8060 N   0  0  0  0  0  0  0  0  0  0  0  0
  1  2  1  0
  2  3  1  0
M  END
>  <Pose ID>  (107)
254

>  <Score>  (107)
-7.316658675670624

$$$$

     RDKit          3D

  3  2  0  0  0  0  0  0  0  0999 V2000
   28.5710   12.5960  -11.0980 C   0  0  0  0  0  0  0  0  0  0  0  0
   29.6840   12.5120  -12.0350 N   0  0  0  0  0  0  0  0  0  0  0  0
   27.6550   11.5250  -10.7310 N   0  0  0  0  0  0  0  0  0  0  0  0
  1  2  1  0
  1  3  2  0
M  END
>  <Pose ID>  (108)
179

>  <Score>  (108)
-7.315997958183289

$$$$

     RDKit          3D

  3  2  0  0  0  0  0  0  0  0999 V2000
   27.0150    9.8530  -10.5700 C   0  0  0  0  0  0  0  0  0  0  0  0
   25.2190   10.1220   -9.1150 N   0  0  0  0  0  0  0  0  0  0  0  0
   25.9460    9.1340   -9.8760 N   0  0  0  0  0  0  0  0  0  0  0  0
  1  3  2  0
  2  3  1  0
M  END
>  <Pose ID>  (109)
264

>  <Score>  (109)
-7.297118663787842

$$$$

     RDKit          3D

  3  2  0  0  0  0  0  0  0  0999 V2000
   27.8450   13.7320   -8.8130 C   0  0  0  0  0  0  0  0  0  0  0  0
   28.9940   13.8310   -9.5900 C   0  0  0  0  0  0  0  0  0  0  0  0
   29.9510   14.7450   -9.2600 O   0  0  0  0  0  0  0  0  0  0  0  0
  1  2  2  0
  2  3  1  0
M  END
>  <Pose ID>  (110)
232

>  <Score>  (110)
-7.289024658501148

$$$$

     RDKit          3D

  3  2  0  0  0  0  0  0  0  0999 V2000
   26.8420    9.1530   -9.1020 N   0  0  0  0  0  0  0  0  0  0  0  0
   27.4880    8.3730   -9.9990 C   0  0  0  0  0  0  0  0  0  0  0  0
   27.5770    7.1670   -9.8190 O   0  0  0  0  0  0  0  0  0  0  0  0
  1  2  1  0
  2  3  2  0
M  END
>  <Pose ID>  (111)
293

>  <Score>  (111)
-7.273175075650215

$$$$

     RDKit          3D

  3  2  0  0  0  0  0  0  0  0999 V2000
   27.0290    7.9630   -9.5350 C   0  0  0  0  0  0  0  0  0  0  0  0
   27.9710    8.4670  -10.1320 O   0  0  0  0  0  0  0  0  0  0  0  0
   26.9390    6.7710   -9.4290 O   0  0  0  0  0  0  0  0  0  0  0  0
  1  2  2  0
  1  3  1  0
M  CHG  1   3  -1
M  END
>  <Pose ID>  (112)
90

>  <Score>  (112)
-7.230040371417999

$$$$

     RDKit          3D

  3  2  0  0  0  0  0  0  0  0999 V2000
   29.1810   10.7220  -12.5180 C   0  0  0  0  0  0  0  0  0  0  0  0
   30.1710   12.7740  -13.2740 C   0  0  0  0  0  0  0  0  0  0  0  0
   30.4390   11.3790  -12.9010 N   0  0  0  0  0  0  0  0  0  0  0  0
  1  3  1  0
  2  3  1  0
M  CHG  1   3   1
M  END
>  <Pose ID>  (113)
4

>  <Score>  (113)
-7.138458490371704

$$$$

     RDKit          3D

  3  2  0  0  0  0  0  0  0  0999 V2000
   26.1950    8.9370   -9.6360 C   0  0  0  0  0  0  0  0  0  0  0  0
   27.0210    9.3160  -10.4210 O   0  0  0  0  0  0  0  0  0  0  0  0
   25.2890    9.6780   -9.2760 O   0  0  0  0  0  0  0  0  0  0  0  0
  1  2  2  0
  1  3  1  0
M  CHG  1   3  -1
M  END
>  <Pose ID>  (114)
91

>  <Score>  (114)
-7.125694036483765

$$$$

     RDKit          3D

  3  2  0  0  0  0  0  0  0  0999 V2000
   28.1930   11.1950  -12.6610 C   0  0  0  0  0  0  0  0  0  0  0  0
   27.9900   12.4830  -13.0630 N   0  0  0  0  0  0  0  0  0  0  0  0
   27.0870   10.4230  -12.2770 N   0  0  0  0  0  0  0  0  0  0  0  0
  1  2  2  0
  1  3  1  0
M  END
>  <Pose ID>  (115)
277

>  <Score>  (115)
-7.124704897403717

$$$$

     RDKit          3D

  3  2  0  0  0  0  0  0  0  0999 V2000
   27.1540    9.2440  -10.1940 C   0  0  0  0  0  0  0  0  0  0  0  0
   25.9900    9.5670  -10.2290 O   0  0  0  0  0  0  0  0  0  0  0  0
   27.7130    8.6000   -8.9960 N   0  0  0  0  0  0  0  0  0  0  0  0
  1  2  2  0
  1  3  1  0
M  END
>  <Pose ID>  (116)
187

>  <Score>  (116)
-7.119572460651398

$$$$

     RDKit          3D

  3  2  0  0  0  0  0  0  0  0999 V2000
   27.5120    9.8410  -10.9400 C   0  0  0  0  0  0  0  0  0  0  0  0
   28.5480    7.7650  -10.7680 N   0  0  0  0  0  0  0  0  0  0  0  0
   27.5350    8.5990  -10.1670 N   0  0  0  0  0  0  0  0  0  0  0  0
  1  3  2  0
  2  3  1  0
M  END
>  <Pose ID>  (117)
265

>  <Score>  (117)
-7.076639771461487

$$$$

     RDKit          3D

  3  2  0  0  0  0  0  0  0  0999 V2000
   24.1890   13.8750   -7.0710 C   0  0  0  0  0  0  0  0  0  0  0  0
   23.9000   11.6930   -7.3930 C   0  0  0  0  0  0  0  0  0  0  0  0
   24.2610   12.6490   -6.4450 N   0  0  0  0  0  0  0  0  0  0  0  0
  1  3  1  0
  2  3  1  0
M  END
>  <Pose ID>  (118)
65

>  <Score>  (118)
-7.064621567726135

$$$$

     RDKit          3D

  3  2  0  0  0  0  0  0  0  0999 V2000
   26.7300   12.7940   -6.6460 C   0  0  0  0  0  0  0  0  0  0  0  0
   26.2330   10.4380   -6.8090 C   0  0  0  0  0  0  0  0  0  0  0  0
   26.8090   11.4970   -6.0160 O   0  0  0  0  0  0  0  0  0  0  0  0
  1  3  1  0
  2  3  1  0
M  END
>  <Pose ID>  (119)
116

>  <Score>  (119)
-7.032606044784188

$$$$

     RDKit          3D

  3  2  0  0  0  0  0  0  0  0999 V2000
   27.8130    8.0200  -10.1310 C   0  0  0  0  0  0  0  0  0  0  0  0
   27.1510    7.0480   -9.5150 N   0  0  0  0  0  0  0  0  0  0  0  0
   27.1420    9.2440  -10.0350 N   0  0  0  0  0  0  0  0  0  0  0  0
  1  3  1  0
  1  2  2  0
M  END
>  <Pose ID>  (120)
244

>  <Score>  (120)
-7.019872963428497

$$$$

     RDKit          3D

  3  2  0  0  0  0  0  0  0  0999 V2000
   29.6540   13.2910  -13.3380 C   0  0  0  0  0  0  0  0  0  0  0  0
   30.2000   13.7590  -14.2980 O   0  0  0  0  0  0  0  0  0  0  0  0
   28.8180   13.9370  -12.7180 O   0  0  0  0  0  0  0  0  0  0  0  0
  1  2  2  0
  1  3  1  0
M  CHG  1   3  -1
M  END
>  <Pose ID>  (121)
92

>  <Score>  (121)
-6.939752578735352

$$$$

     RDKit          3D

  3  2  0  0  0  0  0  0  0  0999 V2000
   22.4290    6.6690   -5.6260 N   0  0  0  0  0  0  0  0  0  0  0  0
   21.1060    6.4990   -5.6990 C   0  0  0  0  0  0  0  0  0  0  0  0
   20.5070    5.4560   -5.9130 O   0  0  0  0  0  0  0  0  0  0  0  0
  1  2  1  0
  2  3  2  0
M  END
>  <Pose ID>  (122)
213

>  <Score>  (122)
-6.932879686355591

$$$$

     RDKit          3D

  3  2  0  0  0  0  0  0  0  0999 V2000
   25.4220    9.5100   -8.4910 N   0  0  0  0  0  0  0  0  0  0  0  0
   25.7700    8.2840   -8.0370 C   0  0  0  0  0  0  0  0  0  0  0  0
   25.1810    7.7870   -7.0890 O   0  0  0  0  0  0  0  0  0  0  0  0
  1  2  1  0
  2  3  2  0
M  END
>  <Pose ID>  (123)
294

>  <Score>  (123)
-6.929177710786462

$$$$

     RDKit          3D

  3  2  0  0  0  0  0  0  0  0999 V2000
   29.4460   11.6870  -12.8910 C   0  0  0  0  0  0  0  0  0  0  0  0
   27.3260   10.8720  -12.6980 C   0  0  0  0  0  0  0  0  0  0  0  0
   28.7040   10.5210  -12.4970 O   0  0  0  0  0  0  0  0  0  0  0  0
  1  3  1  0
  2  3  1  0
M  END
>  <Pose ID>  (124)
136

>  <Score>  (124)
-6.912558555603027

$$$$

     RDKit          3D

  3  2  0  0  0  0  0  0  0  0999 V2000
   27.0640   10.1240   -9.9490 C   0  0  0  0  0  0  0  0  0  0  0  0
   27.2950    8.6880   -9.8800 C   0  0  0  0  0  0  0  0  0  0  0  0
   28.1090    8.1070  -10.6450 O   0  0  0  0  0  0  0  0  0  0  0  0
  1  2  1  0
  2  3  2  0
M  END
>  <Pose ID>  (125)
154

>  <Score>  (125)
-6.908924637362361

$$$$

     RDKit          3D

  3  2  0  0  0  0  0  0  0  0999 V2000
   29.5300   12.6440  -13.4890 C   0  0  0  0  0  0  0  0  0  0  0  0
   28.1670   12.6990  -13.4790 N   0  0  0  0  0  0  0  0  0  0  0  0
   30.2450   13.6760  -14.1170 N   0  0  0  0  0  0  0  0  0  0  0  0
  1  3  1  0
  1  2  2  0
M  END
>  <Pose ID>  (126)
278

>  <Score>  (126)
-6.908032447099686

$$$$

     RDKit          3D

  3  2  0  0  0  0  0  0  0  0999 V2000
   22.0570    8.4570   -3.7270 C   0  0  0  0  0  0  0  0  0  0  0  0
   21.0470    7.6000   -1.7260 C   0  0  0  0  0  0  0  0  0  0  0  0
   22.1290    7.4070   -2.7010 N   0  0  0  0  0  0  0  0  0  0  0  0
  1  3  1  0
  2  3  1  0
M  CHG  1   3   1
M  END
>  <Pose ID>  (127)
56

>  <Score>  (127)
-6.8984034061431885

$$$$

     RDKit          3D

  3  2  0  0  0  0  0  0  0  0999 V2000
   27.0130   10.3930  -10.8250 C   0  0  0  0  0  0  0  0  0  0  0  0
   27.9100   10.4180  -11.9060 C   0  0  0  0  0  0  0  0  0  0  0  0
   27.9220   11.6050  -12.8560 N   0  0  0  0  0  0  0  0  0  0  0  0
  1  2  2  0
  2  3  1  0
M  END
>  <Pose ID>  (128)
81

>  <Score>  (128)
-6.890028238296509

$$$$

     RDKit          3D

  3  2  0  0  0  0  0  0  0  0999 V2000
   30.0570   11.4290  -12.9160 C   0  0  0  0  0  0  0  0  0  0  0  0
   29.4040   12.5440  -13.4650 C   0  0  0  0  0  0  0  0  0  0  0  0
   30.2140   13.6680  -14.0890 N   0  0  0  0  0  0  0  0  0  0  0  0
  1  2  2  0
  2  3  1  0
M  END
>  <Pose ID>  (129)
82

>  <Score>  (129)
-6.88569763302803

$$$$

     RDKit          3D

  3  2  0  0  0  0  0  0  0  0999 V2000
   27.6950   10.6250  -11.5090 C   0  0  0  0  0  0  0  0  0  0  0  0
   27.0840   10.0300  -10.4100 C   0  0  0  0  0  0  0  0  0  0  0  0
   26.1460   10.7260   -9.7050 O   0  0  0  0  0  0  0  0  0  0  0  0
  1  2  2  0
  2  3  1  0
M  END
>  <Pose ID>  (130)
233

>  <Score>  (130)
-6.86754802800715

$$$$

     RDKit          3D

  3  2  0  0  0  0  0  0  0  0999 V2000
   26.3710    7.4140   -9.1060 C   0  0  0  0  0  0  0  0  0  0  0  0
   25.6720    7.5430   -7.9510 N   0  0  0  0  0  0  0  0  0  0  0  0
   25.8850    8.6590   -7.2060 C   0  0  0  0  0  0  0  0  0  0  0  0
  1  2  1  0
  2  3  2  0
M  END
>  <Pose ID>  (131)
162

>  <Score>  (131)
-6.85895525990054

$$$$

     RDKit          3D

  3  2  0  0  0  0  0  0  0  0999 V2000
   27.1140    9.6310   -7.2330 O   0  0  0  0  0  0  0  0  0  0  0  0
   25.9400    9.0460   -7.8750 S   0  0  0  0  0  0  0  0  0  0  0  0
   25.1320    9.8040   -8.8260 O   0  0  0  0  0  0  0  0  0  0  0  0
  1  2  2  0
  2  3  2  0
M  END
>  <Pose ID>  (132)
104

>  <Score>  (132)
-6.853942275047302

$$$$

     RDKit          3D

  3  2  0  0  0  0  0  0  0  0999 V2000
   28.9240   11.9800  -12.5380 C   0  0  0  0  0  0  0  0  0  0  0  0
   29.4780   11.0060  -12.9670 O   0  0  0  0  0  0  0  0  0  0  0  0
   29.4100   12.6180  -11.6130 O   0  0  0  0  0  0  0  0  0  0  0  0
  1  2  2  0
  1  3  1  0
M  CHG  1   3  -1
M  END
>  <Pose ID>  (133)
93

>  <Score>  (133)
-6.851316541433334

$$$$

     RDKit          3D

  3  2  0  0  0  0  0  0  0  0999 V2000
   29.3660   11.5680  -12.3090 C   0  0  0  0  0  0  0  0  0  0  0  0
   28.6050   10.4470  -12.4630 N   0  0  0  0  0  0  0  0  0  0  0  0
   30.4920   11.7410  -13.1270 N   0  0  0  0  0  0  0  0  0  0  0  0
  1  3  1  0
  1  2  2  0
M  END
>  <Pose ID>  (134)
279

>  <Score>  (134)
-6.831737160682678

$$$$

     RDKit          3D

  3  2  0  0  0  0  0  0  0  0999 V2000
   23.6580    8.2420   -4.2250 C   0  0  0  0  0  0  0  0  0  0  0  0
   24.6270    6.3570   -5.1830 N   0  0  0  0  0  0  0  0  0  0  0  0
   24.0420    6.8560   -3.9620 N   0  0  0  0  0  0  0  0  0  0  0  0
  1  3  2  0
  2  3  1  0
M  END
>  <Pose ID>  (135)
266

>  <Score>  (135)
-6.825735515449196

$$$$

     RDKit          3D

  3  2  0  0  0  0  0  0  0  0999 V2000
   27.1310    8.8160   -8.4620 C   0  0  0  0  0  0  0  0  0  0  0  0
   27.0800   10.1920   -8.3650 N   0  0  0  0  0  0  0  0  0  0  0  0
   26.6570    7.9560   -7.3010 N   0  0  0  0  0  0  0  0  0  0  0  0
  1  2  1  0
  1  3  1  0
M  END
>  <Pose ID>  (136)
33

>  <Score>  (136)
-6.804426312446594

$$$$

     RDKit          3D

  3  2  0  0  0  0  0  0  0  0999 V2000
   16.8180   12.1610   -3.3830 C   0  0  0  0  0  0  0  0  0  0  0  0
   15.9300   11.0810   -2.9190 N   0  0  0  0  0  0  0  0  0  0  0  0
   16.1940    9.9480   -3.7740 N   0  0  0  0  0  0  0  0  0  0  0  0
  1  2  1  0
  2  3  1  0
M  END
>  <Pose ID>  (137)
255

>  <Score>  (137)
-6.79640194773674

$$$$

     RDKit          3D

  3  2  0  0  0  0  0  0  0  0999 V2000
   27.9830   11.2630  -11.2660 C   0  0  0  0  0  0  0  0  0  0  0  0
   29.9210   11.7990  -12.3390 C   0  0  0  0  0  0  0  0  0  0  0  0
   28.9050   12.3430  -11.4830 O   0  0  0  0  0  0  0  0  0  0  0  0
  1  3  1  0
  2  3  1  0
M  END
>  <Pose ID>  (138)
137

>  <Score>  (138)
-6.781196653842926

$$$$

     RDKit          3D

  3  2  0  0  0  0  0  0  0  0999 V2000
   29.3010   15.2060  -10.6280 N   0  0  0  0  0  0  0  0  0  0  0  0
   29.5270   14.0900  -11.3300 C   0  0  0  0  0  0  0  0  0  0  0  0
   30.4480   13.8790  -12.1010 O   0  0  0  0  0  0  0  0  0  0  0  0
  1  2  1  0
  2  3  2  0
M  END
>  <Pose ID>  (139)
214

>  <Score>  (139)
-6.766174087766558

$$$$

     RDKit          3D

  3  2  0  0  0  0  0  0  0  0999 V2000
   28.6350   12.3190  -11.2730 C   0  0  0  0  0  0  0  0  0  0  0  0
   27.6130   11.4220  -10.7480 N   0  0  0  0  0  0  0  0  0  0  0  0
   27.6980   10.0530  -11.1930 N   0  0  0  0  0  0  0  0  0  0  0  0
  1  2  1  0
  2  3  2  0
M  END
>  <Pose ID>  (140)
170

>  <Score>  (140)
-6.753783941268921

$$$$

     RDKit          3D

  3  2  0  0  0  0  0  0  0  0999 V2000
   26.0380   10.8740   -9.1690 N   0  0  0  0  0  0  0  0  0  0  0  0
   26.2880    9.8060   -9.9330 C   0  0  0  0  0  0  0  0  0  0  0  0
   25.9470    8.6520   -9.7220 O   0  0  0  0  0  0  0  0  0  0  0  0
  1  2  1  0
  2  3  2  0
M  END
>  <Pose ID>  (141)
215

>  <Score>  (141)
-6.737721681594849

$$$$

     RDKit          3D

  3  2  0  0  0  0  0  0  0  0999 V2000
   29.3870   11.1950  -12.7680 C   0  0  0  0  0  0  0  0  0  0  0  0
   30.5470   10.8630  -12.7200 O   0  0  0  0  0  0  0  0  0  0  0  0
   29.0130   12.5290  -13.2620 N   0  0  0  0  0  0  0  0  0  0  0  0
  1  3  1  0
  1  2  2  0
M  END
>  <Pose ID>  (142)
188

>  <Score>  (142)
-6.73566997051239

$$$$

     RDKit          3D

  3  2  0  0  0  0  0  0  0  0999 V2000
   29.6810   11.4840  -12.8880 C   0  0  0  0  0  0  0  0  0  0  0  0
   29.8580   10.2270  -12.4970 N   0  0  0  0  0  0  0  0  0  0  0  0
   28.3280   11.8340  -12.9040 N   0  0  0  0  0  0  0  0  0  0  0  0
  1  3  1  0
  1  2  2  0
M  END
>  <Pose ID>  (143)
245

>  <Score>  (143)
-6.728462755680084

$$$$

     RDKit          3D

  3  2  0  0  0  0  0  0  0  0999 V2000
   29.6900   11.9110  -12.9870 C   0  0  0  0  0  0  0  0  0  0  0  0
   27.8290   10.7790  -12.5410 C   0  0  0  0  0  0  0  0  0  0  0  0
   28.3150   12.0100  -12.9740 N   0  0  0  0  0  0  0  0  0  0  0  0
  1  3  1  0
  2  3  1  0
M  END
>  <Pose ID>  (144)
66

>  <Score>  (144)
-6.698708236217499

$$$$

     RDKit          3D

  3  2  0  0  0  0  0  0  0  0999 V2000
   28.3520   14.1590  -10.7230 C   0  0  0  0  0  0  0  0  0  0  0  0
   29.2130   14.9720  -10.4800 O   0  0  0  0  0  0  0  0  0  0  0  0
   27.0340   14.5930  -11.2080 N   0  0  0  0  0  0  0  0  0  0  0  0
  1  3  1  0
  1  2  2  0
M  END
>  <Pose ID>  (145)
189

>  <Score>  (145)
-6.698557338211685

$$$$

     RDKit          3D

  3  2  0  0  0  0  0  0  0  0999 V2000
   27.2500   12.5110  -13.3820 C   0  0  0  0  0  0  0  0  0  0  0  0
   27.3330   13.6090  -12.5860 N   0  0  0  0  0  0  0  0  0  0  0  0
   27.3800   13.4120  -11.2440 C   0  0  0  0  0  0  0  0  0  0  0  0
  3  2  2  0
  2  1  1  0
M  END
>  <Pose ID>  (146)
163

>  <Score>  (146)
-6.68619179725647

$$$$

     RDKit          3D

  3  2  0  0  0  0  0  0  0  0999 V2000
   28.8000   10.0620  -12.2880 C   0  0  0  0  0  0  0  0  0  0  0  0
   30.0320   10.7710  -12.6110 N   0  0  0  0  0  0  0  0  0  0  0  0
   29.8620   12.1010  -13.1420 N   0  0  0  0  0  0  0  0  0  0  0  0
  1  2  1  0
  2  3  2  0
M  END
>  <Pose ID>  (147)
171

>  <Score>  (147)
-6.633175849914551

$$$$

     RDKit          3D

  3  2  0  0  0  0  0  0  0  0999 V2000
   26.6070    9.0530   -9.2820 C   0  0  0  0  0  0  0  0  0  0  0  0
   27.5650    8.8720  -10.3650 C   0  0  0  0  0  0  0  0  0  0  0  0
   28.2630    7.8280  -10.4700 O   0  0  0  0  0  0  0  0  0  0  0  0
  1  2  1  0
  2  3  2  0
M  END
>  <Pose ID>  (148)
155

>  <Score>  (148)
-6.629819132387638

$$$$

     RDKit          3D

  3  2  0  0  0  0  0  0  0  0999 V2000
   27.9430   11.6790  -12.8220 C   0  0  0  0  0  0  0  0  0  0  0  0
   28.0110   14.0740  -12.6790 C   0  0  0  0  0  0  0  0  0  0  0  0
   27.2450   12.8710  -12.3210 N   0  0  0  0  0  0  0  0  0  0  0  0
  1  3  1  0
  2  3  1  0
M  CHG  1   3   1
M  END
>  <Pose ID>  (149)
57

>  <Score>  (149)
-6.628173068165779

$$$$

     RDKit          3D

  3  2  0  0  0  0  0  0  0  0999 V2000
   28.0090    7.8870  -10.4160 C   0  0  0  0  0  0  0  0  0  0  0  0
   27.2300    7.0220   -9.5410 N   0  0  0  0  0  0  0  0  0  0  0  0
   27.7550    9.2910  -10.7090 N   0  0  0  0  0  0  0  0  0  0  0  0
  1  3  2  0
  1  2  1  0
M  END
>  <Pose ID>  (150)
180

>  <Score>  (150)
-6.61056649684906

$$$$

     RDKit          3D

  3  2  0  0  0  0  0  0  0  0999 V2000
   27.2130   12.6650  -11.6900 C   0  0  0  0  0  0  0  0  0  0  0  0
   27.3630   11.7810  -12.9240 C   0  0  0  0  0  0  0  0  0  0  0  0
   27.3050   13.8860  -11.7120 O   0  0  0  0  0  0  0  0  0  0  0  0
  1  2  1  0
  1  3  2  0
M  END
>  <Pose ID>  (151)
127

>  <Score>  (151)
-6.563222289085388

$$$$

     RDKit          3D

  3  2  0  0  0  0  0  0  0  0999 V2000
   26.6260   10.9950   -8.1850 C   0  0  0  0  0  0  0  0  0  0  0  0
   26.8750   10.0950   -7.1990 N   0  0  0  0  0  0  0  0  0  0  0  0
   27.3050    8.8620   -7.5650 C   0  0  0  0  0  0  0  0  0  0  0  0
  3  2  2  0
  2  1  1  0
M  END
>  <Pose ID>  (152)
164

>  <Score>  (152)
-6.549127697944641

$$$$

     RDKit          3D

  3  2  0  0  0  0  0  0  0  0999 V2000
   29.6830   11.2670  -12.8370 C   0  0  0  0  0  0  0  0  0  0  0  0
   30.1320    9.9280  -12.4210 N   0  0  0  0  0  0  0  0  0  0  0  0
   28.9420    9.2070  -12.0350 N   0  0  0  0  0  0  0  0  0  0  0  0
  1  2  1  0
  2  3  1  0
M  END
>  <Pose ID>  (153)
256

>  <Score>  (153)
-6.546450361609459

$$$$

     RDKit          3D

  3  2  0  0  0  0  0  0  0  0999 V2000
   28.9370   13.1110  -13.5690 C   0  0  0  0  0  0  0  0  0  0  0  0
   30.2290   13.5920  -14.0880 N   0  0  0  0  0  0  0  0  0  0  0  0
   31.2130   12.6160  -13.6850 N   0  0  0  0  0  0  0  0  0  0  0  0
  1  2  1  0
  2  3  1  0
M  END
>  <Pose ID>  (154)
257

>  <Score>  (154)
-6.537140846252441

$$$$

     RDKit          3D

  3  2  0  0  0  0  0  0  0  0999 V2000
   27.3700   12.0890  -12.9450 C   0  0  0  0  0  0  0  0  0  0  0  0
   27.2420   13.1280  -11.9310 N   0  0  0  0  0  0  0  0  0  0  0  0
   27.0650   12.6600  -10.5790 N   0  0  0  0  0  0  0  0  0  0  0  0
  1  2  1  0
  2  3  2  0
M  END
>  <Pose ID>  (155)
172

>  <Score>  (155)
-6.532031375914812

$$$$

     RDKit          3D

  3  2  0  0  0  0  0  0  0  0999 V2000
   27.2250   10.0460  -10.1980 C   0  0  0  0  0  0  0  0  0  0  0  0
   26.2960   10.6240   -9.2370 C   0  0  0  0  0  0  0  0  0  0  0  0
   25.8440    9.9610   -8.2660 O   0  0  0  0  0  0  0  0  0  0  0  0
  1  2  1  0
  2  3  2  0
M  END
>  <Pose ID>  (156)
156

>  <Score>  (156)
-6.517108201980591

$$$$

     RDKit          3D

  3  2  0  0  0  0  0  0  0  0999 V2000
   26.9910   12.2550   -9.3890 C   0  0  0  0  0  0  0  0  0  0  0  0
   27.1210   12.0320  -11.5980 C   0  0  0  0  0  0  0  0  0  0  0  0
   26.9320   12.9580  -10.5740 N   0  0  0  0  0  0  0  0  0  0  0  0
  1  3  1  0
  2  3  1  0
M  END
>  <Pose ID>  (157)
67

>  <Score>  (157)
-6.516990542411804

$$$$

     RDKit          3D

  3  2  0  0  0  0  0  0  0  0999 V2000
   26.9080   14.1290  -10.5750 C   0  0  0  0  0  0  0  0  0  0  0  0
   27.0070   11.9380  -11.3530 N   0  0  0  0  0  0  0  0  0  0  0  0
   27.3450   13.2990  -11.6980 N   0  0  0  0  0  0  0  0  0  0  0  0
  1  3  2  0
  2  3  1  0
M  END
>  <Pose ID>  (158)
267

>  <Score>  (158)
-6.489866733551025

$$$$

     RDKit          3D

  3  2  0  0  0  0  0  0  0  0999 V2000
   28.6960   13.0690  -14.0380 O   0  0  0  0  0  0  0  0  0  0  0  0
   29.8610   12.7900  -13.2030 S   0  0  0  0  0  0  0  0  0  0  0  0
   31.2200   12.9250  -13.7200 O   0  0  0  0  0  0  0  0  0  0  0  0
  1  2  2  0
  2  3  2  0
M  END
>  <Pose ID>  (159)
105

>  <Score>  (159)
-6.474641824723221

$$$$

     RDKit          3D

  3  2  0  0  0  0  0  0  0  0999 V2000
   29.9990   13.1990  -13.0840 C   0  0  0  0  0  0  0  0  0  0  0  0
   30.3190   13.6690  -14.3420 N   0  0  0  0  0  0  0  0  0  0  0  0
   29.6590   14.1770  -11.9710 N   0  0  0  0  0  0  0  0  0  0  0  0
  1  2  1  0
  1  3  1  0
M  END
>  <Pose ID>  (160)
34

>  <Score>  (160)
-6.466534197330475

$$$$

     RDKit          3D

  3  2  0  0  0  0  0  0  0  0999 V2000
   28.9210   13.8090   -9.5210 C   0  0  0  0  0  0  0  0  0  0  0  0
   27.8540   13.7770   -8.6720 N   0  0  0  0  0  0  0  0  0  0  0  0
   29.9060   14.7910   -9.3350 N   0  0  0  0  0  0  0  0  0  0  0  0
  1  3  1  0
  1  2  2  0
M  END
>  <Pose ID>  (161)
280

>  <Score>  (161)
-6.444895315915346

$$$$

     RDKit          3D

  3  2  0  0  0  0  0  0  0  0999 V2000
   22.2100    8.1710   -0.7590 C   0  0  0  0  0  0  0  0  0  0  0  0
   23.2270    8.9360   -1.1380 N   0  0  0  0  0  0  0  0  0  0  0  0
   21.0740    8.3950   -1.5450 N   0  0  0  0  0  0  0  0  0  0  0  0
  1  3  1  0
  1  2  2  0
M  END
>  <Pose ID>  (162)
246

>  <Score>  (162)
-6.391555666923523

$$$$

     RDKit          3D

  3  2  0  0  0  0  0  0  0  0999 V2000
   27.3060   12.1660  -10.6620 C   0  0  0  0  0  0  0  0  0  0  0  0
   27.4410   13.4160  -11.1900 N   0  0  0  0  0  0  0  0  0  0  0  0
   27.3370   12.0120   -9.2680 N   0  0  0  0  0  0  0  0  0  0  0  0
  1  2  2  0
  1  3  1  0
M  END
>  <Pose ID>  (163)
281

>  <Score>  (163)
-6.384880423545837

$$$$

     RDKit          3D

  3  2  0  0  0  0  0  0  0  0999 V2000
   27.5310    9.6140  -10.6170 C   0  0  0  0  0  0  0  0  0  0  0  0
   26.3390   10.2410  -10.0620 N   0  0  0  0  0  0  0  0  0  0  0  0
   25.5580    9.4150   -9.1740 N   0  0  0  0  0  0  0  0  0  0  0  0
  1  2  1  0
  2  3  2  0
M  END
>  <Pose ID>  (164)
173

>  <Score>  (164)
-6.374993205070496

$$$$

     RDKit          3D

  3  2  0  0  0  0  0  0  0  0999 V2000
   28.9930    9.0760  -11.9890 C   0  0  0  0  0  0  0  0  0  0  0  0
   28.4490   10.3560  -12.0090 C   0  0  0  0  0  0  0  0  0  0  0  0
   28.8740   11.2520  -12.9460 O   0  0  0  0  0  0  0  0  0  0  0  0
  1  2  2  0
  2  3  1  0
M  END
>  <Pose ID>  (165)
234

>  <Score>  (165)
-6.349130164831877

$$$$

     RDKit          3D

  3  2  0  0  0  0  0  0  0  0999 V2000
   26.2750   11.6280   -5.3950 O   0  0  0  0  0  0  0  0  0  0  0  0
   25.6300   11.3710   -6.7020 S   0  0  0  0  0  0  0  0  0  0  0  0
   26.7480   12.0750   -7.8510 N   0  0  0  0  0  0  0  0  0  0  0  0
  1  2  2  0
  2  3  1  0
M  END
>  <Pose ID>  (166)
197

>  <Score>  (166)
-6.342536926269531

$$$$

     RDKit          3D

  3  2  0  0  0  0  0  0  0  0999 V2000
   28.7370   12.4790  -13.2170 N   0  0  0  0  0  0  0  0  0  0  0  0
   30.0660   12.3260  -13.2190 C   0  0  0  0  0  0  0  0  0  0  0  0
   30.8970   13.1080  -13.6490 O   0  0  0  0  0  0  0  0  0  0  0  0
  1  2  1  0
  2  3  2  0
M  END
>  <Pose ID>  (167)
216

>  <Score>  (167)
-6.2938069105148315

$$$$

     RDKit          3D

  3  2  0  0  0  0  0  0  0  0999 V2000
   27.0910   11.6370  -11.1040 C   0  0  0  0  0  0  0  0  0  0  0  0
   27.3360   10.3530  -11.3440 N   0  0  0  0  0  0  0  0  0  0  0  0
   26.2950   11.8070   -9.9670 N   0  0  0  0  0  0  0  0  0  0  0  0
  1  2  2  0
  1  3  1  0
M  END
>  <Pose ID>  (168)
247

>  <Score>  (168)
-6.241494536399841

$$$$

     RDKit          3D

  3  2  0  0  0  0  0  0  0  0999 V2000
   26.2370    9.6410   -7.2710 C   0  0  0  0  0  0  0  0  0  0  0  0
   26.0590    9.0120   -9.5940 C   0  0  0  0  0  0  0  0  0  0  0  0
   25.3590    9.3110   -8.3680 O   0  0  0  0  0  0  0  0  0  0  0  0
  1  3  1  0
  2  3  1  0
M  END
>  <Pose ID>  (169)
117

>  <Score>  (169)
-6.22409188747406

$$$$

     RDKit          3D

  3  2  0  0  0  0  0  0  0  0999 V2000
   28.7720    9.7090  -12.1640 C   0  0  0  0  0  0  0  0  0  0  0  0
   29.8280   11.6160  -12.9760 N   0  0  0  0  0  0  0  0  0  0  0  0
   30.0760   10.2720  -12.5150 N   0  0  0  0  0  0  0  0  0  0  0  0
  1  3  2  0
  2  3  1  0
M  END
>  <Pose ID>  (170)
268

>  <Score>  (170)
-6.204590857028961

$$$$

     RDKit          3D

  3  2  0  0  0  0  0  0  0  0999 V2000
   22.5170    6.6750   -5.5210 O   0  0  0  0  0  0  0  0  0  0  0  0
   23.6980    7.3370   -4.9250 S   0  0  0  0  0  0  0  0  0  0  0  0
   24.8430    6.0290   -4.7270 N   0  0  0  0  0  0  0  0  0  0  0  0
  1  2  2  0
  2  3  1  0
M  END
>  <Pose ID>  (171)
198

>  <Score>  (171)
-6.197344224434346

$$$$

     RDKit          3D

  3  2  0  0  0  0  0  0  0  0999 V2000
   28.5470   14.9880   -9.7230 C   0  0  0  0  0  0  0  0  0  0  0  0
   28.3850   15.5560  -10.9700 N   0  0  0  0  0  0  0  0  0  0  0  0
   29.9360   14.6130   -9.2330 N   0  0  0  0  0  0  0  0  0  0  0  0
  1  2  1  0
  1  3  1  0
M  END
>  <Pose ID>  (172)
35

>  <Score>  (172)
-6.192876238375902

$$$$

     RDKit          3D

  3  2  0  0  0  0  0  0  0  0999 V2000
   28.5000   14.9090   -9.6770 C   0  0  0  0  0  0  0  0  0  0  0  0
   27.9740   16.2180   -9.0570 C   0  0  0  0  0  0  0  0  0  0  0  0
   29.8920   14.6920   -9.2550 N   0  0  0  0  0  0  0  0  0  0  0  0
  3  1  1  0
  1  2  1  0
M  CHG  1   3   1
M  END
>  <Pose ID>  (173)
11

>  <Score>  (173)
-6.069810569286346

$$$$

     RDKit          3D

  3  2  0  0  0  0  0  0  0  0999 V2000
   27.7890    9.5230  -10.9760 C   0  0  0  0  0  0  0  0  0  0  0  0
   28.6730    9.5250  -12.1520 N   0  0  0  0  0  0  0  0  0  0  0  0
   26.9030   10.7240  -10.6890 N   0  0  0  0  0  0  0  0  0  0  0  0
  1  2  2  0
  1  3  1  0
M  CHG  1   2   1
M  END
>  <Pose ID>  (174)
19

>  <Score>  (174)
-6.045059144496918

$$$$

     RDKit          3D

  3  2  0  0  0  0  0  0  0  0999 V2000
   20.2010    8.9610   -5.2450 C   0  0  0  0  0  0  0  0  0  0  0  0
   22.4180    9.0060   -5.4090 C   0  0  0  0  0  0  0  0  0  0  0  0
   21.2850    9.8110   -5.3060 N   0  0  0  0  0  0  0  0  0  0  0  0
  1  3  1  0
  2  3  1  0
M  END
>  <Pose ID>  (175)
68

>  <Score>  (175)
-6.030290961265564

$$$$

     RDKit          3D

  3  2  0  0  0  0  0  0  0  0999 V2000
   23.2710   12.5800   -6.2800 N   0  0  0  0  0  0  0  0  0  0  0  0
   23.6070   13.8500   -6.5340 C   0  0  0  0  0  0  0  0  0  0  0  0
   23.5890   14.7870   -5.7510 O   0  0  0  0  0  0  0  0  0  0  0  0
  1  2  1  0
  2  3  2  0
M  END
>  <Pose ID>  (176)
217

>  <Score>  (176)
-6.014661498367786

$$$$

     RDKit          3D

  3  2  0  0  0  0  0  0  0  0999 V2000
   30.5010   11.5760  -12.9430 C   0  0  0  0  0  0  0  0  0  0  0  0
   30.2330   13.5860  -14.0850 N   0  0  0  0  0  0  0  0  0  0  0  0
   31.2200   12.6120  -13.6850 N   0  0  0  0  0  0  0  0  0  0  0  0
  1  3  2  0
  2  3  1  0
M  END
>  <Pose ID>  (177)
269

>  <Score>  (177)
-5.995675683021545

$$$$

     RDKit          3D

  3  2  0  0  0  0  0  0  0  0999 V2000
   27.2660   11.8960  -12.5000 C   0  0  0  0  0  0  0  0  0  0  0  0
   27.0040   11.1840  -10.3010 N   0  0  0  0  0  0  0  0  0  0  0  0
   26.9120   12.3450  -11.1530 N   0  0  0  0  0  0  0  0  0  0  0  0
  1  3  2  0
  2  3  1  0
M  END
>  <Pose ID>  (178)
270

>  <Score>  (178)
-5.950311154127121

$$$$

     RDKit          3D

  3  2  0  0  0  0  0  0  0  0999 V2000
   28.4780   12.4180  -10.7830 C   0  0  0  0  0  0  0  0  0  0  0  0
   29.1020   14.4260   -9.5990 C   0  0  0  0  0  0  0  0  0  0  0  0
   29.5560   13.2450  -10.2940 O   0  0  0  0  0  0  0  0  0  0  0  0
  1  3  1  0
  2  3  1  0
M  END
>  <Pose ID>  (179)
118

>  <Score>  (179)
-5.94650704972446

$$$$

     RDKit          3D

  3  2  0  0  0  0  0  0  0  0999 V2000
   24.0500   14.7810   -6.5080 O   0  0  0  0  0  0  0  0  0  0  0  0
   24.2310   14.8620   -7.9540 S   0  0  0  0  0  0  0  0  0  0  0  0
   23.5600   15.8860   -8.7510 O   0  0  0  0  0  0  0  0  0  0  0  0
  1  2  2  0
  2  3  2  0
M  END
>  <Pose ID>  (180)
106

>  <Score>  (180)
-5.909544944763184

$$$$

     RDKit          3D

  3  2  0  0  0  0  0  0  0  0999 V2000
   28.7950   14.2070   -9.6900 C   0  0  0  0  0  0  0  0  0  0  0  0
   28.9370   12.9420  -10.5470 C   0  0  0  0  0  0  0  0  0  0  0  0
   30.0340   14.6450   -9.1290 O   0  0  0  0  0  0  0  0  0  0  0  0
  1  2  1  0
  1  3  1  0
M  END
>  <Pose ID>  (181)
207

>  <Score>  (181)
-5.906445220112801

$$$$

     RDKit          3D

  3  2  0  0  0  0  0  0  0  0999 V2000
   27.5450    7.9050   -9.7680 C   0  0  0  0  0  0  0  0  0  0  0  0
   27.2790    9.2260  -10.3630 N   0  0  0  0  0  0  0  0  0  0  0  0
   26.1550    9.7730   -9.6420 N   0  0  0  0  0  0  0  0  0  0  0  0
  1  2  1  0
  2  3  1  0
M  END
>  <Pose ID>  (182)
258

>  <Score>  (182)
-5.877444379031658

$$$$

     RDKit          3D

  3  2  0  0  0  0  0  0  0  0999 V2000
   26.3980   12.3420   -7.5740 C   0  0  0  0  0  0  0  0  0  0  0  0
   25.9520   10.8460   -9.4130 C   0  0  0  0  0  0  0  0  0  0  0  0
   26.3050   12.1850   -9.0050 O   0  0  0  0  0  0  0  0  0  0  0  0
  1  3  1  0
  2  3  1  0
M  END
>  <Pose ID>  (183)
119

>  <Score>  (183)
-5.875788331031799

$$$$

     RDKit          3D

  3  2  0  0  0  0  0  0  0  0999 V2000
   29.6800   13.7080  -11.9640 C   0  0  0  0  0  0  0  0  0  0  0  0
   27.4250   14.5310  -12.2600 C   0  0  0  0  0  0  0  0  0  0  0  0
   28.7330   14.3270  -12.9160 N   0  0  0  0  0  0  0  0  0  0  0  0
  1  3  1  0
  2  3  1  0
M  CHG  1   3   1
M  END
>  <Pose ID>  (184)
43

>  <Score>  (184)
-5.87413184531033

$$$$

     RDKit          3D

  3  2  0  0  0  0  0  0  0  0999 V2000
   27.7440   13.9860   -8.7940 C   0  0  0  0  0  0  0  0  0  0  0  0
   27.1100   12.9740   -8.6870 O   0  0  0  0  0  0  0  0  0  0  0  0
   27.3480   15.0270   -8.2850 O   0  0  0  0  0  0  0  0  0  0  0  0
  1  2  2  0
  1  3  1  0
M  CHG  1   3  -1
M  END
>  <Pose ID>  (185)
94

>  <Score>  (185)
-5.855926381424069

$$$$

     RDKit          3D

  3  2  0  0  0  0  0  0  0  0999 V2000
   27.3550    8.1010   -9.3260 C   0  0  0  0  0  0  0  0  0  0  0  0
   27.0040    9.3720  -10.0910 C   0  0  0  0  0  0  0  0  0  0  0  0
   27.4350    6.9950   -9.8450 O   0  0  0  0  0  0  0  0  0  0  0  0
  1  2  1  0
  1  3  2  0
M  END
>  <Pose ID>  (186)
128

>  <Score>  (186)
-5.824004773050547

$$$$

     RDKit          3D

  3  2  0  0  0  0  0  0  0  0999 V2000
   27.1480    9.7030  -10.3370 C   0  0  0  0  0  0  0  0  0  0  0  0
   26.1390    9.1630   -9.5220 C   0  0  0  0  0  0  0  0  0  0  0  0
   26.0400    7.6590   -9.3310 N   0  0  0  0  0  0  0  0  0  0  0  0
  1  2  2  0
  2  3  1  0
M  END
>  <Pose ID>  (187)
83

>  <Score>  (187)
-5.817671239376068

$$$$

     RDKit          3D

  3  2  0  0  0  0  0  0  0  0999 V2000
   27.8760   10.8880  -11.9530 C   0  0  0  0  0  0  0  0  0  0  0  0
   29.0850   11.5910  -12.5850 C   0  0  0  0  0  0  0  0  0  0  0  0
   26.9580   10.3770  -12.9230 O   0  0  0  0  0  0  0  0  0  0  0  0
  1  3  1  0
  1  2  1  0
M  END
>  <Pose ID>  (188)
208

>  <Score>  (188)
-5.780650317668915

$$$$

     RDKit          3D

  3  2  0  0  0  0  0  0  0  0999 V2000
   28.5840   13.1160  -11.3240 C   0  0  0  0  0  0  0  0  0  0  0  0
   29.2800   13.0790  -12.6750 N   0  0  0  0  0  0  0  0  0  0  0  0
   28.6320   14.3370  -10.5060 N   0  0  0  0  0  0  0  0  0  0  0  0
  1  2  2  0
  1  3  1  0
M  CHG  1   2   1
M  END
>  <Pose ID>  (189)
20

>  <Score>  (189)
-5.779348384588957

$$$$

     RDKit          3D

  3  2  0  0  0  0  0  0  0  0999 V2000
   26.0820    9.6410   -9.6390 C   0  0  0  0  0  0  0  0  0  0  0  0
   27.3050    9.3010  -10.3420 C   0  0  0  0  0  0  0  0  0  0  0  0
   27.9180    9.9220  -11.2410 O   0  0  0  0  0  0  0  0  0  0  0  0
  1  2  1  0
  2  3  2  0
M  END
>  <Pose ID>  (190)
144

>  <Score>  (190)
-5.70899863820523

$$$$

     RDKit          3D

  3  2  0  0  0  0  0  0  0  0999 V2000
   27.2980   12.6050  -13.2800 C   0  0  0  0  0  0  0  0  0  0  0  0
   27.4720   13.5450  -12.2510 C   0  0  0  0  0  0  0  0  0  0  0  0
   27.5860   15.0240  -12.5820 N   0  0  0  0  0  0  0  0  0  0  0  0
  1  2  2  0
  2  3  1  0
M  END
>  <Pose ID>  (191)
84

>  <Score>  (191)
-5.657714366912842

$$$$

     RDKit          3D

  3  2  0  0  0  0  0  0  0  0999 V2000
   29.5290   12.2280  -11.9040 N   0  0  0  0  0  0  0  0  0  0  0  0
   29.0100   12.7560  -10.7910 C   0  0  0  0  0  0  0  0  0  0  0  0
   29.5450   13.5480  -10.0300 O   0  0  0  0  0  0  0  0  0  0  0  0
  1  2  1  0
  2  3  2  0
M  END
>  <Pose ID>  (192)
218

>  <Score>  (192)
-5.654059141874313

$$$$

     RDKit          3D

  3  2  0  0  0  0  0  0  0  0999 V2000
   24.9890   10.8900   -7.5080 C   0  0  0  0  0  0  0  0  0  0  0  0
   23.6200   12.5480   -8.5760 C   0  0  0  0  0  0  0  0  0  0  0  0
   24.5380   12.2880   -7.4570 N   0  0  0  0  0  0  0  0  0  0  0  0
  1  3  1  0
  2  3  1  0
M  CHG  1   3   1
M  END
>  <Pose ID>  (193)
58

>  <Score>  (193)
-5.645489364862442

$$$$

     RDKit          3D

  3  2  0  0  0  0  0  0  0  0999 V2000
   27.6100   13.2200  -10.9820 C   0  0  0  0  0  0  0  0  0  0  0  0
   27.5740   13.5950  -12.3210 C   0  0  0  0  0  0  0  0  0  0  0  0
   27.7260   14.9110  -12.6530 O   0  0  0  0  0  0  0  0  0  0  0  0
  1  2  2  0
  2  3  1  0
M  END
>  <Pose ID>  (194)
235

>  <Score>  (194)
-5.645340204238892

$$$$

     RDKit          3D

  3  2  0  0  0  0  0  0  0  0999 V2000
   24.9770   14.0990   -8.6600 C   0  0  0  0  0  0  0  0  0  0  0  0
   26.0760   14.2950   -9.7130 C   0  0  0  0  0  0  0  0  0  0  0  0
   24.3380   12.7780   -8.7360 N   0  0  0  0  0  0  0  0  0  0  0  0
  1  2  1  0
  1  3  1  0
M  CHG  1   3   1
M  END
>  <Pose ID>  (195)
50

>  <Score>  (195)
-5.6287994384765625

$$$$

     RDKit          3D

  3  2  0  0  0  0  0  0  0  0999 V2000
   28.9410    9.4170  -12.0910 C   0  0  0  0  0  0  0  0  0  0  0  0
   27.7160   10.0120  -12.1570 N   0  0  0  0  0  0  0  0  0  0  0  0
   29.0330    8.1070  -11.5970 N   0  0  0  0  0  0  0  0  0  0  0  0
  1  2  2  0
  1  3  1  0
M  END
>  <Pose ID>  (196)
282

>  <Score>  (196)
-5.623541831970215

$$$$

     RDKit          3D

  3  2  0  0  0  0  0  0  0  0999 V2000
   25.9870   11.4700   -9.5170 C   0  0  0  0  0  0  0  0  0  0  0  0
   26.1050    9.2870   -9.9250 C   0  0  0  0  0  0  0  0  0  0  0  0
   25.4160   10.2560   -9.1990 N   0  0  0  0  0  0  0  0  0  0  0  0
  1  3  1  0
  2  3  1  0
M  END
>  <Pose ID>  (197)
69

>  <Score>  (197)
-5.620168566703796

$$$$

     RDKit          3D

  3  2  0  0  0  0  0  0  0  0999 V2000
   30.3280   10.9910  -12.6700 C   0  0  0  0  0  0  0  0  0  0  0  0
   29.9890   12.3090  -13.1740 C   0  0  0  0  0  0  0  0  0  0  0  0
   30.7320   13.2600  -13.5110 O   0  0  0  0  0  0  0  0  0  0  0  0
  1  2  1  0
  2  3  2  0
M  END
>  <Pose ID>  (198)
145

>  <Score>  (198)
-5.615269720554352

$$$$

     RDKit          3D

  3  2  0  0  0  0  0  0  0  0999 V2000
   26.6620   11.0090   -8.2270 C   0  0  0  0  0  0  0  0  0  0  0  0
   26.8420   10.7350   -9.5790 C   0  0  0  0  0  0  0  0  0  0  0  0
   26.5780   11.7060  -10.5010 O   0  0  0  0  0  0  0  0  0  0  0  0
  1  2  2  0
  2  3  1  0
M  END
>  <Pose ID>  (199)
236

>  <Score>  (199)
-5.603696912527084

$$$$

     RDKit          3D

  3  2  0  0  0  0  0  0  0  0999 V2000
   26.9920   10.6890  -10.6650 C   0  0  0  0  0  0  0  0  0  0  0  0
   28.0160   10.6710  -11.2900 O   0  0  0  0  0  0  0  0  0  0  0  0
   26.3620    9.6580  -10.4680 O   0  0  0  0  0  0  0  0  0  0  0  0
  1  2  2  0
  1  3  1  0
M  CHG  1   3  -1
M  END
>  <Pose ID>  (200)
95

>  <Score>  (200)
-5.563014540821314

$$$$

     RDKit          3D

  3  2  0  0  0  0  0  0  0  0999 V2000
   27.7400   10.3520  -11.0010 N   0  0  0  0  0  0  0  0  0  0  0  0
   27.3370    9.4690  -10.0800 C   0  0  0  0  0  0  0  0  0  0  0  0
   26.5920    9.6780   -9.1370 O   0  0  0  0  0  0  0  0  0  0  0  0
  1  2  1  0
  2  3  2  0
M  END
>  <Pose ID>  (201)
219

>  <Score>  (201)
-5.542894601821899

$$$$

     RDKit          3D

  3  2  0  0  0  0  0  0  0  0999 V2000
   28.0090   10.3200  -12.0470 C   0  0  0  0  0  0  0  0  0  0  0  0
   27.1000   10.6290  -12.7800 O   0  0  0  0  0  0  0  0  0  0  0  0
   27.7360    9.7680  -10.7120 N   0  0  0  0  0  0  0  0  0  0  0  0
  1  2  2  0
  1  3  1  0
M  END
>  <Pose ID>  (202)
190

>  <Score>  (202)
-5.484584808349609

$$$$

     RDKit          3D

  3  2  0  0  0  0  0  0  0  0999 V2000
   27.9390   11.6620  -12.8710 C   0  0  0  0  0  0  0  0  0  0  0  0
   29.4480   11.9210  -12.9830 C   0  0  0  0  0  0  0  0  0  0  0  0
   27.1980   12.8260  -12.5010 O   0  0  0  0  0  0  0  0  0  0  0  0
  1  2  1  0
  1  3  1  0
M  END
>  <Pose ID>  (203)
209

>  <Score>  (203)
-5.450089391320944

$$$$

     RDKit          3D

  3  2  0  0  0  0  0  0  0  0999 V2000
   27.6770   12.0370  -12.4970 C   0  0  0  0  0  0  0  0  0  0  0  0
   29.8440   10.9780  -12.6630 C   0  0  0  0  0  0  0  0  0  0  0  0
   29.0050   12.0960  -13.1410 N   0  0  0  0  0  0  0  0  0  0  0  0
  1  3  1  0
  2  3  1  0
M  CHG  1   3   1
M  END
>  <Pose ID>  (204)
44

>  <Score>  (204)
-5.43570339679718

$$$$

     RDKit          3D

  3  2  0  0  0  0  0  0  0  0999 V2000
   25.8960   12.8260   -8.1070 N   0  0  0  0  0  0  0  0  0  0  0  0
   25.5300   14.1090   -8.1980 C   0  0  0  0  0  0  0  0  0  0  0  0
   26.2070   15.0900   -7.9320 O   0  0  0  0  0  0  0  0  0  0  0  0
  1  2  1  0
  2  3  2  0
M  END
>  <Pose ID>  (205)
220

>  <Score>  (205)
-5.42138397693634

$$$$

     RDKit          3D

  3  2  0  0  0  0  0  0  0  0999 V2000
   28.9260   12.5410  -11.0580 C   0  0  0  0  0  0  0  0  0  0  0  0
   28.5510   13.9020   -9.2690 C   0  0  0  0  0  0  0  0  0  0  0  0
   29.5800   13.4590  -10.1660 O   0  0  0  0  0  0  0  0  0  0  0  0
  1  3  1  0
  2  3  1  0
M  END
>  <Pose ID>  (206)
138

>  <Score>  (206)
-5.369935095310211

$$$$

     RDKit          3D

  3  2  0  0  0  0  0  0  0  0999 V2000
   27.6480   10.7630  -12.5430 C   0  0  0  0  0  0  0  0  0  0  0  0
   29.5890   12.1920  -12.6770 C   0  0  0  0  0  0  0  0  0  0  0  0
   28.2430   11.9390  -13.1330 O   0  0  0  0  0  0  0  0  0  0  0  0
  1  3  1  0
  2  3  1  0
M  END
>  <Pose ID>  (207)
120

>  <Score>  (207)
-5.352969288825989

$$$$

     RDKit          3D

  3  2  0  0  0  0  0  0  0  0999 V2000
   27.3080   10.4280  -10.6590 C   0  0  0  0  0  0  0  0  0  0  0  0
   27.2300    9.2280  -10.0150 N   0  0  0  0  0  0  0  0  0  0  0  0
   26.4630   11.4720  -10.2540 N   0  0  0  0  0  0  0  0  0  0  0  0
  1  3  1  0
  1  2  2  0
M  END
>  <Pose ID>  (208)
283

>  <Score>  (208)
-5.329666003584862

$$$$

     RDKit          3D

  3  2  0  0  0  0  0  0  0  0999 V2000
   30.0440   13.5440  -13.3060 C   0  0  0  0  0  0  0  0  0  0  0  0
   29.1970   13.1920  -11.0690 C   0  0  0  0  0  0  0  0  0  0  0  0
   30.0510   14.0490  -11.9170 N   0  0  0  0  0  0  0  0  0  0  0  0
  1  3  1  0
  2  3  1  0
M  CHG  1   3   1
M  END
>  <Pose ID>  (209)
45

>  <Score>  (209)
-5.3191067753359675

$$$$

     RDKit          3D

  3  2  0  0  0  0  0  0  0  0999 V2000
   30.0350   13.4990  -13.6150 C   0  0  0  0  0  0  0  0  0  0  0  0
   29.3100   12.9940  -11.3830 C   0  0  0  0  0  0  0  0  0  0  0  0
   29.9010   14.0240  -12.2490 N   0  0  0  0  0  0  0  0  0  0  0  0
  1  3  1  0
  2  3  1  0
M  CHG  1   3   1
M  END
>  <Pose ID>  (210)
5

>  <Score>  (210)
-5.289340886287391

$$$$

     RDKit          3D

  3  2  0  0  0  0  0  0  0  0999 V2000
   26.7760   10.4390   -7.0450 C   0  0  0  0  0  0  0  0  0  0  0  0
   26.1270   11.6660   -6.8280 C   0  0  0  0  0  0  0  0  0  0  0  0
   26.9340   12.9530   -6.7660 N   0  0  0  0  0  0  0  0  0  0  0  0
  1  2  2  0
  2  3  1  0
M  END
>  <Pose ID>  (211)
85

>  <Score>  (211)
-5.269880957901478

$$$$

     RDKit          3D

  3  2  0  0  0  0  0  0  0  0999 V2000
   27.3030   13.3870  -11.2220 C   0  0  0  0  0  0  0  0  0  0  0  0
   27.2520   12.1080  -10.6450 C   0  0  0  0  0  0  0  0  0  0  0  0
   27.2460   11.9560   -9.1330 N   0  0  0  0  0  0  0  0  0  0  0  0
  1  2  2  0
  2  3  1  0
M  END
>  <Pose ID>  (212)
86

>  <Score>  (212)
-5.267297387123108

$$$$

     RDKit          3D

  3  2  0  0  0  0  0  0  0  0999 V2000
   28.3540   13.0350  -12.0830 C   0  0  0  0  0  0  0  0  0  0  0  0
   30.0770   13.5440  -13.6760 C   0  0  0  0  0  0  0  0  0  0  0  0
   29.6730   13.6540  -12.2660 N   0  0  0  0  0  0  0  0  0  0  0  0
  1  3  1  0
  2  3  1  0
M  CHG  1   3   1
M  END
>  <Pose ID>  (213)
59

>  <Score>  (213)
-5.24874809011817

$$$$

     RDKit          3D

  3  2  0  0  0  0  0  0  0  0999 V2000
   29.2670   14.3350   -9.6880 C   0  0  0  0  0  0  0  0  0  0  0  0
   28.7940   13.1240   -9.9640 N   0  0  0  0  0  0  0  0  0  0  0  0
   29.9240   14.8950  -10.7870 N   0  0  0  0  0  0  0  0  0  0  0  0
  1  3  1  0
  1  2  2  0
M  END
>  <Pose ID>  (214)
248

>  <Score>  (214)
-5.215486750006676

$$$$

     RDKit          3D

  3  2  0  0  0  0  0  0  0  0999 V2000
   24.2410    7.4170   -5.7770 C   0  0  0  0  0  0  0  0  0  0  0  0
   24.2390    6.5860   -4.4790 C   0  0  0  0  0  0  0  0  0  0  0  0
   24.0120    8.8320   -5.4540 N   0  0  0  0  0  0  0  0  0  0  0  0
  3  1  1  0
  1  2  1  0
M  CHG  1   3   1
M  END
>  <Pose ID>  (215)
12

>  <Score>  (215)
-5.191231071949005

$$$$

     RDKit          3D

  3  2  0  0  0  0  0  0  0  0999 V2000
   30.5990   12.6120  -13.3210 C   0  0  0  0  0  0  0  0  0  0  0  0
   29.3570   11.7770  -12.9560 C   0  0  0  0  0  0  0  0  0  0  0  0
   30.2170   13.6690  -14.2690 N   0  0  0  0  0  0  0  0  0  0  0  0
  3  1  1  0
  1  2  1  0
M  CHG  1   3   1
M  END
>  <Pose ID>  (216)
13

>  <Score>  (216)
-5.179972372949123

$$$$

     RDKit          3D

  3  2  0  0  0  0  0  0  0  0999 V2000
   28.4590   10.0070  -12.1820 C   0  0  0  0  0  0  0  0  0  0  0  0
   28.9300    8.6560  -11.6230 C   0  0  0  0  0  0  0  0  0  0  0  0
   29.5510   10.8000  -12.7630 N   0  0  0  0  0  0  0  0  0  0  0  0
  1  3  1  0
  1  2  1  0
M  CHG  1   3   1
M  END
>  <Pose ID>  (217)
51

>  <Score>  (217)
-5.177376978099346

$$$$

     RDKit          3D

  3  2  0  0  0  0  0  0  0  0999 V2000
   29.6150   12.5340  -10.9830 O   0  0  0  0  0  0  0  0  0  0  0  0
   29.3830   13.7670  -11.7670 S   0  0  0  0  0  0  0  0  0  0  0  0
   30.0870   15.0220  -10.7690 N   0  0  0  0  0  0  0  0  0  0  0  0
  1  2  2  0
  2  3  1  0
M  END
>  <Pose ID>  (218)
199

>  <Score>  (218)
-5.141999751329422

$$$$

     RDKit          3D

  3  2  0  0  0  0  0  0  0  0999 V2000
   25.3410    7.4590   -6.9090 N   0  0  0  0  0  0  0  0  0  0  0  0
   24.4060    7.4700   -5.9520 C   0  0  0  0  0  0  0  0  0  0  0  0
   24.0030    6.5180   -5.3040 O   0  0  0  0  0  0  0  0  0  0  0  0
  1  2  1  0
  2  3  2  0
M  END
>  <Pose ID>  (219)
221

>  <Score>  (219)
-5.066831701435149

$$$$

     RDKit          3D

  3  2  0  0  0  0  0  0  0  0999 V2000
   25.0160   10.3260   -8.9300 C   0  0  0  0  0  0  0  0  0  0  0  0
   25.1780   11.7700   -9.0330 N   0  0  0  0  0  0  0  0  0  0  0  0
   25.8000    9.3070   -9.6160 N   0  0  0  0  0  0  0  0  0  0  0  0
  1  3  2  0
  1  2  1  0
M  END
>  <Pose ID>  (220)
181

>  <Score>  (220)
-5.05618454515934

$$$$

     RDKit          3D

  3  2  0  0  0  0  0  0  0  0999 V2000
   27.2370   10.5570  -11.3980 C   0  0  0  0  0  0  0  0  0  0  0  0
   26.7440    9.8650  -10.2150 N   0  0  0  0  0  0  0  0  0  0  0  0
   28.3000   10.1130  -12.2910 N   0  0  0  0  0  0  0  0  0  0  0  0
  1  3  2  0
  1  2  1  0
M  END
>  <Pose ID>  (221)
182

>  <Score>  (221)
-5.026377975940704

$$$$

     RDKit          3D

  3  2  0  0  0  0  0  0  0  0999 V2000
   27.1670   12.5690  -11.8110 N   0  0  0  0  0  0  0  0  0  0  0  0
   26.8150   11.9150  -10.6990 C   0  0  0  0  0  0  0  0  0  0  0  0
   26.3640   12.3960   -9.6710 O   0  0  0  0  0  0  0  0  0  0  0  0
  1  2  1  0
  2  3  2  0
M  END
>  <Pose ID>  (222)
222

>  <Score>  (222)
-5.0083348751068115

$$$$

     RDKit          3D

  3  2  0  0  0  0  0  0  0  0999 V2000
   24.7890   11.8730   -8.8420 C   0  0  0  0  0  0  0  0  0  0  0  0
   25.8380   12.3160   -9.6210 N   0  0  0  0  0  0  0  0  0  0  0  0
   23.5240   12.7090   -8.7220 N   0  0  0  0  0  0  0  0  0  0  0  0
  1  2  1  0
  1  3  1  0
M  END
>  <Pose ID>  (223)
36

>  <Score>  (223)
-4.939698100090027

$$$$

     RDKit          3D

  3  2  0  0  0  0  0  0  0  0999 V2000
   27.1960   14.2110  -11.0230 C   0  0  0  0  0  0  0  0  0  0  0  0
   29.4160   14.3010  -10.9600 C   0  0  0  0  0  0  0  0  0  0  0  0
   28.2840   14.9200  -11.4830 N   0  0  0  0  0  0  0  0  0  0  0  0
  1  3  1  0
  2  3  1  0
M  END
>  <Pose ID>  (224)
70

>  <Score>  (224)
-4.93039415567182

$$$$

     RDKit          3D

  3  2  0  0  0  0  0  0  0  0999 V2000
   30.0130   12.6540  -12.4080 C   0  0  0  0  0  0  0  0  0  0  0  0
   30.4830   13.4910  -13.1410 O   0  0  0  0  0  0  0  0  0  0  0  0
   29.3720   13.0440  -11.1440 N   0  0  0  0  0  0  0  0  0  0  0  0
  1  2  2  0
  1  3  1  0
M  END
>  <Pose ID>  (225)
191

>  <Score>  (225)
-4.853537291288376

$$$$

     RDKit          3D

  3  2  0  0  0  0  0  0  0  0999 V2000
   26.4240   10.1210  -10.1480 N   0  0  0  0  0  0  0  0  0  0  0  0
   27.5020    9.4520  -10.6200 C   0  0  0  0  0  0  0  0  0  0  0  0
   28.1940    9.9400  -11.5020 O   0  0  0  0  0  0  0  0  0  0  0  0
  1  2  1  0
  2  3  2  0
M  END
>  <Pose ID>  (226)
295

>  <Score>  (226)
-4.824568912386894

$$$$

     RDKit          3D

  3  2  0  0  0  0  0  0  0  0999 V2000
   24.3600   12.4610   -8.0160 O   0  0  0  0  0  0  0  0  0  0  0  0
   25.3350   11.4190   -7.7060 S   0  0  0  0  0  0  0  0  0  0  0  0
   26.7600   11.7180   -7.5850 O   0  0  0  0  0  0  0  0  0  0  0  0
  1  2  2  0
  2  3  2  0
M  END
>  <Pose ID>  (227)
107

>  <Score>  (227)
-4.79877257719636

$$$$

     RDKit          3D

  3  2  0  0  0  0  0  0  0  0999 V2000
   26.4900   10.0150   -8.1270 C   0  0  0  0  0  0  0  0  0  0  0  0
   25.7170    8.9470   -7.5080 N   0  0  0  0  0  0  0  0  0  0  0  0
   27.3440    9.9070   -9.3030 N   0  0  0  0  0  0  0  0  0  0  0  0
  1  3  2  0
  1  2  1  0
M  END
>  <Pose ID>  (228)
183

>  <Score>  (228)
-4.791293501853943

$$$$

     RDKit          3D

  3  2  0  0  0  0  0  0  0  0999 V2000
   27.8340    8.8800  -10.6530 C   0  0  0  0  0  0  0  0  0  0  0  0
   27.0460   10.1800  -10.6720 N   0  0  0  0  0  0  0  0  0  0  0  0
   27.5500    7.8620   -9.6300 N   0  0  0  0  0  0  0  0  0  0  0  0
  1  2  2  0
  1  3  1  0
M  CHG  1   2   1
M  END
>  <Pose ID>  (229)
21

>  <Score>  (229)
-4.791279524564743

$$$$

     RDKit          3D

  3  2  0  0  0  0  0  0  0  0999 V2000
   24.2490    7.1330   -5.6010 C   0  0  0  0  0  0  0  0  0  0  0  0
   25.2100    7.4810   -6.6590 N   0  0  0  0  0  0  0  0  0  0  0  0
   24.5520    5.9920   -4.6440 N   0  0  0  0  0  0  0  0  0  0  0  0
  1  2  2  0
  1  3  1  0
M  CHG  1   2   1
M  END
>  <Pose ID>  (230)
22

>  <Score>  (230)
-4.750722870230675

$$$$

     RDKit          3D

  3  2  0  0  0  0  0  0  0  0999 V2000
   28.7560   11.7610  -11.5630 N   0  0  0  0  0  0  0  0  0  0  0  0
   28.8600   13.0200  -11.0780 C   0  0  0  0  0  0  0  0  0  0  0  0
   29.5660   13.2520  -10.1080 O   0  0  0  0  0  0  0  0  0  0  0  0
  1  2  1  0
  2  3  2  0
M  END
>  <Pose ID>  (231)
296

>  <Score>  (231)
-4.6808005422353745

$$$$

     RDKit          3D

  3  2  0  0  0  0  0  0  0  0999 V2000
   26.7760    9.3380  -10.3180 N   0  0  0  0  0  0  0  0  0  0  0  0
   27.5310   10.0880  -11.1550 C   0  0  0  0  0  0  0  0  0  0  0  0
   28.2900    9.5530  -11.9480 O   0  0  0  0  0  0  0  0  0  0  0  0
  1  2  1  0
  2  3  2  0
M  END
>  <Pose ID>  (232)
297

>  <Score>  (232)
-4.649737544357777

$$$$

     RDKit          3D

  3  2  0  0  0  0  0  0  0  0999 V2000
   27.6900   12.0120  -10.7200 N   0  0  0  0  0  0  0  0  0  0  0  0
   27.4650   10.8770  -11.4200 C   0  0  0  0  0  0  0  0  0  0  0  0
   27.5070    9.7900  -10.8650 O   0  0  0  0  0  0  0  0  0  0  0  0
  1  2  1  0
  2  3  2  0
M  END
>  <Pose ID>  (233)
298

>  <Score>  (233)
-4.632008850574493

$$$$

     RDKit          3D

  3  2  0  0  0  0  0  0  0  0999 V2000
   24.2890   11.8280   -7.6210 C   0  0  0  0  0  0  0  0  0  0  0  0
   23.6390   11.1560   -6.8560 O   0  0  0  0  0  0  0  0  0  0  0  0
   25.7580   11.7470   -7.6180 N   0  0  0  0  0  0  0  0  0  0  0  0
  1  3  1  0
  1  2  2  0
M  END
>  <Pose ID>  (234)
192

>  <Score>  (234)
-4.614060580730438

$$$$

     RDKit          3D

  3  2  0  0  0  0  0  0  0  0999 V2000
   27.4290    8.9510   -7.5180 C   0  0  0  0  0  0  0  0  0  0  0  0
   26.3530    7.4600   -9.0620 C   0  0  0  0  0  0  0  0  0  0  0  0
   26.5670    7.7670   -7.6410 N   0  0  0  0  0  0  0  0  0  0  0  0
  1  3  1  0
  2  3  1  0
M  CHG  1   3   1
M  END
>  <Pose ID>  (235)
6

>  <Score>  (235)
-4.56477312464267

$$$$

     RDKit          3D

  3  2  0  0  0  0  0  0  0  0999 V2000
   26.3200    7.4430   -9.0400 C   0  0  0  0  0  0  0  0  0  0  0  0
   27.4190    8.9640   -7.5170 C   0  0  0  0  0  0  0  0  0  0  0  0
   26.5710    7.7590   -7.6190 N   0  0  0  0  0  0  0  0  0  0  0  0
  1  3  1  0
  2  3  1  0
M  CHG  1   3   1
M  END
>  <Pose ID>  (236)
46

>  <Score>  (236)
-4.553358881734312

$$$$

     RDKit          3D

  3  2  0  0  0  0  0  0  0  0999 V2000
   23.6620    7.8490   -2.0300 C   0  0  0  0  0  0  0  0  0  0  0  0
   24.6790    7.2150   -1.9960 O   0  0  0  0  0  0  0  0  0  0  0  0
   23.2890    8.4870   -1.0540 O   0  0  0  0  0  0  0  0  0  0  0  0
  1  2  2  0
  1  3  1  0
M  CHG  1   3  -1
M  END
>  <Pose ID>  (237)
96

>  <Score>  (237)
-4.543220765888691

$$$$

     RDKit          3D

  3  2  0  0  0  0  0  0  0  0999 V2000
   25.5660    8.1050   -7.6100 C   0  0  0  0  0  0  0  0  0  0  0  0
   25.2430    9.2690   -7.6460 O   0  0  0  0  0  0  0  0  0  0  0  0
   25.0910    7.2340   -6.5250 N   0  0  0  0  0  0  0  0  0  0  0  0
  1  2  2  0
  1  3  1  0
M  END
>  <Pose ID>  (238)
193

>  <Score>  (238)
-4.541049852967262

$$$$

     RDKit          3D

  3  2  0  0  0  0  0  0  0  0999 V2000
   23.6390    6.3110   -3.5160 C   0  0  0  0  0  0  0  0  0  0  0  0
   24.3080    7.1430   -5.6850 C   0  0  0  0  0  0  0  0  0  0  0  0
   24.5250    6.0850   -4.6760 N   0  0  0  0  0  0  0  0  0  0  0  0
  1  3  1  0
  2  3  1  0
M  CHG  1   3   1
M  END
>  <Pose ID>  (239)
47

>  <Score>  (239)
-4.536559395492077

$$$$

     RDKit          3D

  3  2  0  0  0  0  0  0  0  0999 V2000
   28.9840   10.6510  -12.6480 C   0  0  0  0  0  0  0  0  0  0  0  0
   29.0360    9.2230  -12.0720 C   0  0  0  0  0  0  0  0  0  0  0  0
   30.3530   11.1520  -12.8410 N   0  0  0  0  0  0  0  0  0  0  0  0
  3  1  1  0
  1  2  1  0
M  CHG  1   3   1
M  END
>  <Pose ID>  (240)
14

>  <Score>  (240)
-4.535706952214241

$$$$

     RDKit          3D

  3  2  0  0  0  0  0  0  0  0999 V2000
   22.6380    9.2030   -1.2980 C   0  0  0  0  0  0  0  0  0  0  0  0
   22.6360   10.7070   -1.0790 N   0  0  0  0  0  0  0  0  0  0  0  0
   21.9240    8.3810   -0.4500 N   0  0  0  0  0  0  0  0  0  0  0  0
  1  2  1  0
  1  3  1  0
M  END
>  <Pose ID>  (241)
37

>  <Score>  (241)
-4.520242005586624

$$$$

     RDKit          3D

  3  2  0  0  0  0  0  0  0  0999 V2000
   24.0780   11.7160   -7.2440 C   0  0  0  0  0  0  0  0  0  0  0  0
   23.6890   12.3670   -8.5670 C   0  0  0  0  0  0  0  0  0  0  0  0
   23.4680   10.7800   -6.7410 O   0  0  0  0  0  0  0  0  0  0  0  0
  1  2  1  0
  1  3  2  0
M  END
>  <Pose ID>  (242)
129

>  <Score>  (242)
-4.488633096218109

$$$$

     RDKit          3D

  3  2  0  0  0  0  0  0  0  0999 V2000
   27.5260   10.4680   -8.1960 O   0  0  0  0  0  0  0  0  0  0  0  0
   26.7530    9.5130   -8.9850 S   0  0  0  0  0  0  0  0  0  0  0  0
   26.9550    8.0720   -8.8520 O   0  0  0  0  0  0  0  0  0  0  0  0
  1  2  2  0
  2  3  2  0
M  END
>  <Pose ID>  (243)
108

>  <Score>  (243)
-4.45879518147558

$$$$

     RDKit          3D

  3  2  0  0  0  0  0  0  0  0999 V2000
   24.3000    7.1380   -5.7060 C   0  0  0  0  0  0  0  0  0  0  0  0
   23.9470    6.5630   -3.4020 C   0  0  0  0  0  0  0  0  0  0  0  0
   24.5250    6.1130   -4.6770 N   0  0  0  0  0  0  0  0  0  0  0  0
  1  3  1  0
  2  3  1  0
M  CHG  1   3   1
M  END
>  <Pose ID>  (244)
7

>  <Score>  (244)
-4.456470683217049

$$$$

     RDKit          3D

  3  2  0  0  0  0  0  0  0  0999 V2000
   23.7870    7.8170   -3.2460 C   0  0  0  0  0  0  0  0  0  0  0  0
   22.3910    7.5030   -3.8020 C   0  0  0  0  0  0  0  0  0  0  0  0
   24.2300    6.8540   -2.2290 N   0  0  0  0  0  0  0  0  0  0  0  0
  1  2  1  0
  1  3  1  0
M  CHG  1   3   1
M  END
>  <Pose ID>  (245)
52

>  <Score>  (245)
-4.401211608201265

$$$$

     RDKit          3D

  3  2  0  0  0  0  0  0  0  0999 V2000
   29.1400   12.5770  -13.0490 C   0  0  0  0  0  0  0  0  0  0  0  0
   29.8100   13.8820  -12.9400 N   0  0  0  0  0  0  0  0  0  0  0  0
   29.9410   11.2950  -12.8880 N   0  0  0  0  0  0  0  0  0  0  0  0
  1  2  2  0
  1  3  1  0
M  CHG  1   2   1
M  END
>  <Pose ID>  (246)
23

>  <Score>  (246)
-4.401151061989367

$$$$

     RDKit          3D

  3  2  0  0  0  0  0  0  0  0999 V2000
   25.1020    9.9520   -9.2410 O   0  0  0  0  0  0  0  0  0  0  0  0
   26.5540    9.7710   -9.0200 S   0  0  0  0  0  0  0  0  0  0  0  0
   27.2760   11.0200  -10.0120 N   0  0  0  0  0  0  0  0  0  0  0  0
  1  2  2  0
  2  3  1  0
M  END
>  <Pose ID>  (247)
200

>  <Score>  (247)
-4.373820930719376

$$$$

     RDKit          3D

  3  2  0  0  0  0  0  0  0  0999 V2000
   29.1960   11.0970  -12.6210 C   0  0  0  0  0  0  0  0  0  0  0  0
   28.4520    9.8330  -12.1700 C   0  0  0  0  0  0  0  0  0  0  0  0
   30.6050   10.8970  -12.7580 O   0  0  0  0  0  0  0  0  0  0  0  0
  1  3  1  0
  1  2  1  0
M  END
>  <Pose ID>  (248)
210

>  <Score>  (248)
-4.345262885093689

$$$$

     RDKit          3D

  3  2  0  0  0  0  0  0  0  0999 V2000
   29.8070   12.6010  -11.4420 O   0  0  0  0  0  0  0  0  0  0  0  0
   28.9990   13.3470  -10.4820 S   0  0  0  0  0  0  0  0  0  0  0  0
   29.6090   14.0780   -9.3750 O   0  0  0  0  0  0  0  0  0  0  0  0
  1  2  2  0
  2  3  2  0
M  END
>  <Pose ID>  (249)
109

>  <Score>  (249)
-4.326601324835792

$$$$

     RDKit          3D

  3  2  0  0  0  0  0  0  0  0999 V2000
   24.2690    7.1320   -5.6250 C   0  0  0  0  0  0  0  0  0  0  0  0
   24.5670    6.0260   -4.6990 N   0  0  0  0  0  0  0  0  0  0  0  0
   23.3790    5.8370   -3.9020 N   0  0  0  0  0  0  0  0  0  0  0  0
  1  2  1  0
  2  3  1  0
M  END
>  <Pose ID>  (250)
259

>  <Score>  (250)
-4.3104769587516785

$$$$

     RDKit          3D

  3  2  0  0  0  0  0  0  0  0999 V2000
   25.8010    9.5110   -9.5720 N   0  0  0  0  0  0  0  0  0  0  0  0
   26.9500    9.3630  -10.2400 C   0  0  0  0  0  0  0  0  0  0  0  0
   27.4050   10.1030  -11.0980 O   0  0  0  0  0  0  0  0  0  0  0  0
  1  2  1  0
  2  3  2  0
M  END
>  <Pose ID>  (251)
223

>  <Score>  (251)
-4.281389594078064

$$$$

     RDKit          3D

  3  2  0  0  0  0  0  0  0  0999 V2000
   26.1140    8.3870   -9.4390 N   0  0  0  0  0  0  0  0  0  0  0  0
   25.7660    9.6780   -9.4800 C   0  0  0  0  0  0  0  0  0  0  0  0
   24.7640   10.1870   -9.0030 O   0  0  0  0  0  0  0  0  0  0  0  0
  1  2  1  0
  2  3  2  0
M  END
>  <Pose ID>  (252)
224

>  <Score>  (252)
-4.27779433131218

$$$$

     RDKit          3D

  3  2  0  0  0  0  0  0  0  0999 V2000
   28.6790    9.9320  -12.2050 C   0  0  0  0  0  0  0  0  0  0  0  0
   29.8870   10.7970  -12.6110 C   0  0  0  0  0  0  0  0  0  0  0  0
   27.4880   10.7830  -12.0750 N   0  0  0  0  0  0  0  0  0  0  0  0
  3  1  1  0
  1  2  1  0
M  CHG  1   3   1
M  END
>  <Pose ID>  (253)
15

>  <Score>  (253)
-4.276126191020012

$$$$

     RDKit          3D

  3  2  0  0  0  0  0  0  0  0999 V2000
   30.1190   13.1900  -13.0250 C   0  0  0  0  0  0  0  0  0  0  0  0
   30.2870   13.7570  -14.3720 N   0  0  0  0  0  0  0  0  0  0  0  0
   30.0400   14.1100  -11.8180 N   0  0  0  0  0  0  0  0  0  0  0  0
  1  2  2  0
  1  3  1  0
M  CHG  1   2   1
M  END
>  <Pose ID>  (254)
24

>  <Score>  (254)
-4.233239348977804

$$$$

     RDKit          3D

  3  2  0  0  0  0  0  0  0  0999 V2000
   27.8640   13.5190  -12.4120 C   0  0  0  0  0  0  0  0  0  0  0  0
   27.1100   15.4990  -11.2830 C   0  0  0  0  0  0  0  0  0  0  0  0
   27.3330   14.8770  -12.5960 N   0  0  0  0  0  0  0  0  0  0  0  0
  1  3  1  0
  2  3  1  0
M  CHG  1   3   1
M  END
>  <Pose ID>  (255)
60

>  <Score>  (255)
-4.230755873024464

$$$$

     RDKit          3D

  3  2  0  0  0  0  0  0  0  0999 V2000
   27.4780   10.6700  -12.5700 N   0  0  0  0  0  0  0  0  0  0  0  0
   27.9180   11.8790  -12.9910 C   0  0  0  0  0  0  0  0  0  0  0  0
   27.1220   12.7520  -13.3010 O   0  0  0  0  0  0  0  0  0  0  0  0
  1  2  1  0
  2  3  2  0
M  END
>  <Pose ID>  (256)
299

>  <Score>  (256)
-4.215859085321426

$$$$

     RDKit          3D

  3  2  0  0  0  0  0  0  0  0999 V2000
   25.9170   15.4490   -4.9880 C   0  0  0  0  0  0  0  0  0  0  0  0
   25.6700   13.9990   -4.9930 N   0  0  0  0  0  0  0  0  0  0  0  0
   26.4100   16.1310   -3.7220 N   0  0  0  0  0  0  0  0  0  0  0  0
  1  2  2  0
  1  3  1  0
M  CHG  1   2   1
M  END
>  <Pose ID>  (257)
25

>  <Score>  (257)
-4.169574808431207

$$$$

     RDKit          3D

  3  2  0  0  0  0  0  0  0  0999 V2000
   27.6050   10.5290  -11.1780 C   0  0  0  0  0  0  0  0  0  0  0  0
   27.0860   11.8370  -10.5650 C   0  0  0  0  0  0  0  0  0  0  0  0
   27.2350   10.3690  -12.5480 O   0  0  0  0  0  0  0  0  0  0  0  0
  1  3  1  0
  1  2  1  0
M  END
>  <Pose ID>  (258)
211

>  <Score>  (258)
-4.1589900851249695

$$$$

     RDKit          3D

  3  2  0  0  0  0  0  0  0  0999 V2000
   25.8610   10.9600   -7.7570 O   0  0  0  0  0  0  0  0  0  0  0  0
   25.9570    9.5170   -7.9600 S   0  0  0  0  0  0  0  0  0  0  0  0
   25.0100    8.5950   -7.3430 O   0  0  0  0  0  0  0  0  0  0  0  0
  1  2  2  0
  2  3  2  0
M  END
>  <Pose ID>  (259)
110

>  <Score>  (259)
-4.147097036242485

$$$$

     RDKit          3D

  3  2  0  0  0  0  0  0  0  0999 V2000
   27.0270   12.4360  -11.4080 N   0  0  0  0  0  0  0  0  0  0  0  0
   27.1630   11.9240  -12.6360 C   0  0  0  0  0  0  0  0  0  0  0  0
   27.0310   12.5100  -13.6980 O   0  0  0  0  0  0  0  0  0  0  0  0
  1  2  1  0
  2  3  2  0
M  END
>  <Pose ID>  (260)
225

>  <Score>  (260)
-4.1395212933421135

$$$$

     RDKit          3D

  3  2  0  0  0  0  0  0  0  0999 V2000
   26.0490    8.0180   -9.0210 C   0  0  0  0  0  0  0  0  0  0  0  0
   25.7980    9.4150   -9.3240 C   0  0  0  0  0  0  0  0  0  0  0  0
   24.8180   10.1400   -9.0360 O   0  0  0  0  0  0  0  0  0  0  0  0
  1  2  1  0
  2  3  2  0
M  END
>  <Pose ID>  (261)
146

>  <Score>  (261)
-4.125671586021781

$$$$

     RDKit          3D

  3  2  0  0  0  0  0  0  0  0999 V2000
   26.9750   12.8150  -13.5030 O   0  0  0  0  0  0  0  0  0  0  0  0
   28.0880   13.4290  -12.7460 S   0  0  0  0  0  0  0  0  0  0  0  0
   27.5930   15.1000  -12.5770 N   0  0  0  0  0  0  0  0  0  0  0  0
  1  2  2  0
  2  3  1  0
M  END
>  <Pose ID>  (262)
201

>  <Score>  (262)
-4.05922388099134

$$$$

     RDKit          3D

  3  2  0  0  0  0  0  0  0  0999 V2000
   23.8730   14.1980   -6.7650 C   0  0  0  0  0  0  0  0  0  0  0  0
   24.8530   13.3390   -7.0250 N   0  0  0  0  0  0  0  0  0  0  0  0
   24.3480   15.5090   -6.6650 N   0  0  0  0  0  0  0  0  0  0  0  0
  1  2  2  0
  1  3  1  0
M  END
>  <Pose ID>  (263)
249

>  <Score>  (263)
-4.000666618347168

$$$$

     RDKit          3D

  3  2  0  0  0  0  0  0  0  0999 V2000
   29.0030   11.3990  -12.7800 C   0  0  0  0  0  0  0  0  0  0  0  0
   28.4490   12.5450  -13.3140 N   0  0  0  0  0  0  0  0  0  0  0  0
   30.5090   11.1940  -12.8210 N   0  0  0  0  0  0  0  0  0  0  0  0
  1  2  1  0
  1  3  1  0
M  END
>  <Pose ID>  (264)
38

>  <Score>  (264)
-3.976778507232666

$$$$

     RDKit          3D

  3  2  0  0  0  0  0  0  0  0999 V2000
   27.6730   11.4480  -11.1220 C   0  0  0  0  0  0  0  0  0  0  0  0
   28.5690   12.4280  -11.4310 N   0  0  0  0  0  0  0  0  0  0  0  0
   26.5560   11.7750  -10.3380 N   0  0  0  0  0  0  0  0  0  0  0  0
  1  2  2  0
  1  3  1  0
M  END
>  <Pose ID>  (265)
284

>  <Score>  (265)
-3.9740140587091446

$$$$

     RDKit          3D

  3  2  0  0  0  0  0  0  0  0999 V2000
   27.3970    9.7770  -10.6930 C   0  0  0  0  0  0  0  0  0  0  0  0
   26.7760   10.6220  -10.0940 O   0  0  0  0  0  0  0  0  0  0  0  0
   27.8370   10.0150  -12.0760 N   0  0  0  0  0  0  0  0  0  0  0  0
  1  3  1  0
  1  2  2  0
M  END
>  <Pose ID>  (266)
194

>  <Score>  (266)
-3.9520338475704193

$$$$

     RDKit          3D

  3  2  0  0  0  0  0  0  0  0999 V2000
   25.5520   15.1940   -9.5120 C   0  0  0  0  0  0  0  0  0  0  0  0
   26.6080   15.6520   -8.4870 C   0  0  0  0  0  0  0  0  0  0  0  0
   24.6910   16.3300   -9.8700 N   0  0  0  0  0  0  0  0  0  0  0  0
  3  1  1  0
  1  2  1  0
M  CHG  1   3   1
M  END
>  <Pose ID>  (267)
16

>  <Score>  (267)
-3.9500394174829125

$$$$

     RDKit          3D

  3  2  0  0  0  0  0  0  0  0999 V2000
   28.1620   11.7580  -11.9430 N   0  0  0  0  0  0  0  0  0  0  0  0
   27.8630   10.4780  -11.6980 C   0  0  0  0  0  0  0  0  0  0  0  0
   26.8570   10.0470  -11.1560 O   0  0  0  0  0  0  0  0  0  0  0  0
  1  2  1  0
  2  3  2  0
M  END
>  <Pose ID>  (268)
226

>  <Score>  (268)
-3.9499431252479553

$$$$

     RDKit          3D

  3  2  0  0  0  0  0  0  0  0999 V2000
   24.0090    6.6070   -3.5050 C   0  0  0  0  0  0  0  0  0  0  0  0
   24.3190    7.0850   -5.6540 C   0  0  0  0  0  0  0  0  0  0  0  0
   24.5140    6.1040   -4.6850 N   0  0  0  0  0  0  0  0  0  0  0  0
  1  3  1  0
  2  3  1  0
M  END
>  <Pose ID>  (269)
71

>  <Score>  (269)
-3.9477750062942505

$$$$

     RDKit          3D

  3  2  0  0  0  0  0  0  0  0999 V2000
   30.0080   11.9380  -13.2120 O   0  0  0  0  0  0  0  0  0  0  0  0
   28.8500   11.7270  -12.3490 S   0  0  0  0  0  0  0  0  0  0  0  0
   28.7830   12.3000  -11.0070 O   0  0  0  0  0  0  0  0  0  0  0  0
  1  2  2  0
  2  3  2  0
M  END
>  <Pose ID>  (270)
111

>  <Score>  (270)
-3.9473282918334007

$$$$

     RDKit          3D

  3  2  0  0  0  0  0  0  0  0999 V2000
   28.8830   13.1430  -10.1850 C   0  0  0  0  0  0  0  0  0  0  0  0
   29.0530   15.2370   -9.1840 N   0  0  0  0  0  0  0  0  0  0  0  0
   29.7420   14.3220  -10.0620 N   0  0  0  0  0  0  0  0  0  0  0  0
  1  3  2  0
  2  3  1  0
M  END
>  <Pose ID>  (271)
271

>  <Score>  (271)
-3.932206317782402

$$$$

     RDKit          3D

  3  2  0  0  0  0  0  0  0  0999 V2000
   27.4160   13.7310  -12.2540 C   0  0  0  0  0  0  0  0  0  0  0  0
   27.3880   12.8380  -13.2850 N   0  0  0  0  0  0  0  0  0  0  0  0
   27.5520   15.0970  -12.5440 N   0  0  0  0  0  0  0  0  0  0  0  0
  1  2  2  0
  1  3  1  0
M  END
>  <Pose ID>  (272)
285

>  <Score>  (272)
-3.927007719874382

$$$$

     RDKit          3D

  3  2  0  0  0  0  0  0  0  0999 V2000
   29.3800   10.9030  -12.6880 C   0  0  0  0  0  0  0  0  0  0  0  0
   28.6450   11.7830  -13.0440 O   0  0  0  0  0  0  0  0  0  0  0  0
   30.5930   11.0230  -12.7890 O   0  0  0  0  0  0  0  0  0  0  0  0
  1  2  2  0
  1  3  1  0
M  CHG  1   3  -1
M  END
>  <Pose ID>  (273)
97

>  <Score>  (273)
-3.9268354177474976

$$$$

     RDKit          3D

  3  2  0  0  0  0  0  0  0  0999 V2000
   23.9150    7.1530   -5.2290 C   0  0  0  0  0  0  0  0  0  0  0  0
   24.7530    7.7850   -6.3570 C   0  0  0  0  0  0  0  0  0  0  0  0
   24.6140    5.9730   -4.7010 N   0  0  0  0  0  0  0  0  0  0  0  0
  3  1  1  0
  1  2  1  0
M  CHG  1   3   1
M  END
>  <Pose ID>  (274)
17

>  <Score>  (274)
-3.9246535673737526

$$$$

     RDKit          3D

  3  2  0  0  0  0  0  0  0  0999 V2000
   27.6610   10.1750  -12.3550 N   0  0  0  0  0  0  0  0  0  0  0  0
   28.9160    9.6960  -12.1970 C   0  0  0  0  0  0  0  0  0  0  0  0
   29.0960    8.5590  -11.7870 O   0  0  0  0  0  0  0  0  0  0  0  0
  1  2  1  0
  2  3  2  0
M  END
>  <Pose ID>  (275)
300

>  <Score>  (275)
-3.889478726312518

$$$$

     RDKit          3D

  3  2  0  0  0  0  0  0  0  0999 V2000
   25.1620   10.2820   -8.9750 C   0  0  0  0  0  0  0  0  0  0  0  0
   27.0020   11.4980   -9.9520 C   0  0  0  0  0  0  0  0  0  0  0  0
   25.6550   11.5570   -9.4380 O   0  0  0  0  0  0  0  0  0  0  0  0
  1  3  1  0
  2  3  1  0
M  END
>  <Pose ID>  (276)
121

>  <Score>  (276)
-3.871371775865555

$$$$

     RDKit          3D

  3  2  0  0  0  0  0  0  0  0999 V2000
   27.2250   10.9620   -9.3970 C   0  0  0  0  0  0  0  0  0  0  0  0
   27.9360   12.0090  -10.2380 N   0  0  0  0  0  0  0  0  0  0  0  0
   26.5710   11.3500   -8.1380 N   0  0  0  0  0  0  0  0  0  0  0  0
  1  2  2  0
  1  3  1  0
M  CHG  1   2   1
M  END
>  <Pose ID>  (277)
26

>  <Score>  (277)
-3.849501334130764

$$$$

     RDKit          3D

  3  2  0  0  0  0  0  0  0  0999 V2000
   27.3130   11.7590  -12.4520 C   0  0  0  0  0  0  0  0  0  0  0  0
   26.8650   12.1110  -13.5070 O   0  0  0  0  0  0  0  0  0  0  0  0
   26.8610   12.2000  -11.4030 O   0  0  0  0  0  0  0  0  0  0  0  0
  1  2  2  0
  1  3  1  0
M  CHG  1   3  -1
M  END
>  <Pose ID>  (278)
98

>  <Score>  (278)
-3.842477962374687

$$$$

     RDKit          3D

  3  2  0  0  0  0  0  0  0  0999 V2000
   17.7760   10.6330   -4.8470 C   0  0  0  0  0  0  0  0  0  0  0  0
   17.3950   11.6830   -5.6580 N   0  0  0  0  0  0  0  0  0  0  0  0
   19.1020    9.9310   -5.0860 N   0  0  0  0  0  0  0  0  0  0  0  0
  1  2  1  0
  1  3  1  0
M  END
>  <Pose ID>  (279)
39

>  <Score>  (279)
-3.839838184416294

$$$$

     RDKit          3D

  3  2  0  0  0  0  0  0  0  0999 V2000
   24.2640   10.9940   -6.8580 C   0  0  0  0  0  0  0  0  0  0  0  0
   25.2260    9.9660   -7.2060 C   0  0  0  0  0  0  0  0  0  0  0  0
   25.1150    8.7180   -7.1840 O   0  0  0  0  0  0  0  0  0  0  0  0
  1  2  1  0
  2  3  2  0
M  END
>  <Pose ID>  (280)
147

>  <Score>  (280)
-3.8397925309836864

$$$$

     RDKit          3D

  3  2  0  0  0  0  0  0  0  0999 V2000
   28.5240   10.6980  -12.0920 C   0  0  0  0  0  0  0  0  0  0  0  0
   29.5800   11.5560  -12.8030 C   0  0  0  0  0  0  0  0  0  0  0  0
   28.8520    9.2660  -12.0930 N   0  0  0  0  0  0  0  0  0  0  0  0
  1  2  1  0
  1  3  1  0
M  CHG  1   3   1
M  END
>  <Pose ID>  (281)
53

>  <Score>  (281)
-3.836636394262314

$$$$

     RDKit          3D

  3  2  0  0  0  0  0  0  0  0999 V2000
   26.0290   12.8520   -9.8100 O   0  0  0  0  0  0  0  0  0  0  0  0
   25.4590   13.2120   -8.5140 S   0  0  0  0  0  0  0  0  0  0  0  0
   25.4970   14.5850   -8.0180 O   0  0  0  0  0  0  0  0  0  0  0  0
  1  2  2  0
  2  3  2  0
M  END
>  <Pose ID>  (282)
112

>  <Score>  (282)
-3.80588860809803

$$$$

     RDKit          3D

  3  2  0  0  0  0  0  0  0  0999 V2000
   25.8220    9.4280   -9.5920 C   0  0  0  0  0  0  0  0  0  0  0  0
   25.0170   10.3100   -8.9430 N   0  0  0  0  0  0  0  0  0  0  0  0
   25.2950   11.6320   -9.0740 C   0  0  0  0  0  0  0  0  0  0  0  0
  3  2  2  0
  2  1  1  0
M  END
>  <Pose ID>  (283)
165

>  <Score>  (283)
-3.795401871204376

$$$$

     RDKit          3D

  3  2  0  0  0  0  0  0  0  0999 V2000
   30.5000   13.9940  -11.9870 O   0  0  0  0  0  0  0  0  0  0  0  0
   29.6260   13.2430  -12.9150 S   0  0  0  0  0  0  0  0  0  0  0  0
   30.0280   13.9120  -14.4820 N   0  0  0  0  0  0  0  0  0  0  0  0
  1  2  2  0
  2  3  1  0
M  END
>  <Pose ID>  (284)
202

>  <Score>  (284)
-3.7787275322480127

$$$$

     RDKit          3D

  3  2  0  0  0  0  0  0  0  0999 V2000
   27.6180    9.6310  -10.8270 C   0  0  0  0  0  0  0  0  0  0  0  0
   27.1210   11.9120  -11.4360 C   0  0  0  0  0  0  0  0  0  0  0  0
   26.7270   10.7550  -10.6670 O   0  0  0  0  0  0  0  0  0  0  0  0
  1  3  1  0
  2  3  1  0
M  END
>  <Pose ID>  (285)
122

>  <Score>  (285)
-3.7725352719426155

$$$$

     RDKit          3D

  3  2  0  0  0  0  0  0  0  0999 V2000
   27.6950   13.4500   -8.7360 O   0  0  0  0  0  0  0  0  0  0  0  0
   28.1140   14.7030   -9.4050 S   0  0  0  0  0  0  0  0  0  0  0  0
   29.8570   14.6850   -9.2460 N   0  0  0  0  0  0  0  0  0  0  0  0
  1  2  2  0
  2  3  1  0
M  END
>  <Pose ID>  (286)
203

>  <Score>  (286)
-3.764668864198029

$$$$

     RDKit          3D

  3  2  0  0  0  0  0  0  0  0999 V2000
   23.3520    9.3340   -2.7290 C   0  0  0  0  0  0  0  0  0  0  0  0
   22.5200   10.7600   -1.0910 N   0  0  0  0  0  0  0  0  0  0  0  0
   23.4780    9.7060   -1.3210 N   0  0  0  0  0  0  0  0  0  0  0  0
  1  3  2  0
  2  3  1  0
M  END
>  <Pose ID>  (287)
272

>  <Score>  (287)
-3.743131029419601

$$$$

     RDKit          3D

  3  2  0  0  0  0  0  0  0  0999 V2000
   27.4870   10.6970  -12.5100 C   0  0  0  0  0  0  0  0  0  0  0  0
   27.9890   11.9150  -12.9530 C   0  0  0  0  0  0  0  0  0  0  0  0
   27.1250   12.9090  -13.3070 O   0  0  0  0  0  0  0  0  0  0  0  0
  1  2  2  0
  2  3  1  0
M  END
>  <Pose ID>  (288)
237

>  <Score>  (288)
-3.7254932961659506

$$$$

     RDKit          3D

  3  2  0  0  0  0  0  0  0  0999 V2000
   25.7760   15.4970   -4.7620 C   0  0  0  0  0  0  0  0  0  0  0  0
   24.4010   14.9130   -4.4830 N   0  0  0  0  0  0  0  0  0  0  0  0
   26.4920   16.0930   -3.7440 N   0  0  0  0  0  0  0  0  0  0  0  0
  1  2  1  0
  1  3  1  0
M  END
>  <Pose ID>  (289)
40

>  <Score>  (289)
-3.720901469743694

$$$$

     RDKit          3D

  3  2  0  0  0  0  0  0  0  0999 V2000
   18.1220    8.4210   -2.9740 C   0  0  0  0  0  0  0  0  0  0  0  0
   16.7340    8.8680   -2.9330 N   0  0  0  0  0  0  0  0  0  0  0  0
   16.3820    9.8900   -3.8880 N   0  0  0  0  0  0  0  0  0  0  0  0
  1  2  1  0
  2  3  2  0
M  END
>  <Pose ID>  (290)
174

>  <Score>  (290)
-3.695038616657257

$$$$

     RDKit          3D

  3  2  0  0  0  0  0  0  0  0999 V2000
   26.8950    9.9910  -10.6900 C   0  0  0  0  0  0  0  0  0  0  0  0
   25.9070    9.2920   -9.8780 N   0  0  0  0  0  0  0  0  0  0  0  0
   25.0900   10.1290   -9.0350 N   0  0  0  0  0  0  0  0  0  0  0  0
  1  2  1  0
  2  3  2  0
M  END
>  <Pose ID>  (291)
175

>  <Score>  (291)
-3.6934431605041027

$$$$

     RDKit          3D

  3  2  0  0  0  0  0  0  0  0999 V2000
   21.8310   10.9550   -2.3830 C   0  0  0  0  0  0  0  0  0  0  0  0
   22.5340   10.7880   -1.1000 N   0  0  0  0  0  0  0  0  0  0  0  0
   23.4160    9.6580   -1.2670 N   0  0  0  0  0  0  0  0  0  0  0  0
  1  2  1  0
  2  3  1  0
M  END
>  <Pose ID>  (292)
260

>  <Score>  (292)
-3.6823462897591526

$$$$

     RDKit          3D

  3  2  0  0  0  0  0  0  0  0999 V2000
   17.2480   12.8450   -5.4570 C   0  0  0  0  0  0  0  0  0  0  0  0
   17.5160   13.4150   -4.4260 O   0  0  0  0  0  0  0  0  0  0  0  0
   17.3920   11.3850   -5.5600 N   0  0  0  0  0  0  0  0  0  0  0  0
  1  3  1  0
  1  2  2  0
M  END
>  <Pose ID>  (293)
195

>  <Score>  (293)
-3.6515336921438575

$$$$

     RDKit          3D

  3  2  0  0  0  0  0  0  0  0999 V2000
   27.9220    8.8050  -10.3150 C   0  0  0  0  0  0  0  0  0  0  0  0
   28.6790    8.8050  -11.6510 C   0  0  0  0  0  0  0  0  0  0  0  0
   27.4370    7.4730   -9.9300 N   0  0  0  0  0  0  0  0  0  0  0  0
  1  2  1  0
  1  3  1  0
M  CHG  1   3   1
M  END
>  <Pose ID>  (294)
54

>  <Score>  (294)
-3.6431934237480164

$$$$

     RDKit          3D

  3  2  0  0  0  0  0  0  0  0999 V2000
   23.8890    6.9570   -4.1310 C   0  0  0  0  0  0  0  0  0  0  0  0
   23.0160    7.8910   -4.9540 N   0  0  0  0  0  0  0  0  0  0  0  0
   24.6300    5.9750   -4.7570 N   0  0  0  0  0  0  0  0  0  0  0  0
  1  2  1  0
  1  3  1  0
M  END
>  <Pose ID>  (295)
41

>  <Score>  (295)
-3.6401075664907694

$$$$

     RDKit          3D

  3  2  0  0  0  0  0  0  0  0999 V2000
   29.1010   12.9950  -11.4460 O   0  0  0  0  0  0  0  0  0  0  0  0
   29.1100   12.4380  -12.7960 S   0  0  0  0  0  0  0  0  0  0  0  0
   29.6100   11.0930  -13.0630 O   0  0  0  0  0  0  0  0  0  0  0  0
  1  2  2  0
  2  3  2  0
M  END
>  <Pose ID>  (296)
113

>  <Score>  (296)
-3.5969706773757935

$$$$

     RDKit          3D

  3  2  0  0  0  0  0  0  0  0999 V2000
   27.5000    8.9590   -7.7110 C   0  0  0  0  0  0  0  0  0  0  0  0
   25.3400    8.1490   -7.0080 C   0  0  0  0  0  0  0  0  0  0  0  0
   26.4690    7.9650   -7.8880 O   0  0  0  0  0  0  0  0  0  0  0  0
  1  3  1  0
  2  3  1  0
M  END
>  <Pose ID>  (297)
123

>  <Score>  (297)
-3.5917609874159098

$$$$

     RDKit          3D

  3  2  0  0  0  0  0  0  0  0999 V2000
   25.6980    9.4880   -9.3350 C   0  0  0  0  0  0  0  0  0  0  0  0
   26.9730    9.6080  -10.1630 C   0  0  0  0  0  0  0  0  0  0  0  0
   24.9900   10.4410   -9.0350 O   0  0  0  0  0  0  0  0  0  0  0  0
  1  2  1  0
  1  3  2  0
M  END
>  <Pose ID>  (298)
130

>  <Score>  (298)
-3.5487062074244022

$$$$

     RDKit          3D

  3  2  0  0  0  0  0  0  0  0999 V2000
   27.4940    8.5780  -10.0440 C   0  0  0  0  0  0  0  0  0  0  0  0
   26.9440    9.8100  -10.2380 N   0  0  0  0  0  0  0  0  0  0  0  0
   27.0800    7.8160   -8.9410 N   0  0  0  0  0  0  0  0  0  0  0  0
  1  2  2  0
  1  3  1  0
M  END
>  <Pose ID>  (299)
286

>  <Score>  (299)
-3.5275575816631317

$$$$

     RDKit          3D

  3  2  0  0  0  0  0  0  0  0999 V2000
   27.2960    7.3680   -9.0920 O   0  0  0  0  0  0  0  0  0  0  0  0
   26.9190    8.4780   -8.2220 S   0  0  0  0  0  0  0  0  0  0  0  0
   27.8540    9.0380   -7.2500 O   0  0  0  0  0  0  0  0  0  0  0  0
  1  2  2  0
  2  3  2  0
M  END
>  <Pose ID>  (300)
114

>  <Score>  (300)
-3.505875537346583

$$$$
