
     RDKit          3D

 34 36  0  0  0  0  0  0  0  0999 V2000
   25.1270    9.2710   -6.9750 C   0  0  0  0  0  0  0  0  0  0  0  0
   25.1020    7.8950   -6.7700 C   0  0  0  0  0  0  0  0  0  0  0  0
   25.8210    7.0530   -7.6060 N   0  0  0  0  0  0  0  0  0  0  0  0
   26.5720    7.5880   -8.6500 C   0  0  0  0  0  0  0  0  0  0  0  0
   24.5420   10.2400   -6.3260 O   0  0  0  0  0  0  0  0  0  0  0  0
   26.6000    8.9590   -8.8530 C   0  0  0  0  0  0  0  0  0  0  0  0
   25.8790    9.8020   -8.0190 C   0  0  0  0  0  0  0  0  0  0  0  0
   27.3410    6.9840   -9.5750 N   0  0  0  0  0  0  0  0  0  0  0  0
   27.8770    7.9490  -10.3980 C   0  0  0  0  0  0  0  0  0  0  0  0
   27.3170    9.1110   -9.8260 C   0  0  0  0  0  0  0  0  0  0  0  0
   25.4250   10.9410   -5.4570 C   0  0  1  0  0  0  0  0  0  0  0  0
   28.7130    7.9980  -11.4890 N   0  0  0  0  0  0  0  0  0  0  0  0
   29.0340    9.1880  -12.0510 C   0  0  0  0  0  0  0  0  0  0  0  0
   30.3630    9.6580  -12.1790 N   0  0  0  0  0  0  0  0  0  0  0  0
   30.3200   10.9080  -12.8110 C   0  0  0  0  0  0  0  0  0  0  0  0
   28.9210   11.0470  -12.9980 C   0  0  0  0  0  0  0  0  0  0  0  0
   28.1590   10.0210  -12.5560 N   0  0  0  0  0  0  0  0  0  0  0  0
   26.6910    9.9190  -12.6680 C   0  0  1  0  0  0  0  0  0  0  0  0
   31.4440   11.8420  -13.1870 C   0  0  1  0  0  0  0  0  0  0  0  0
   24.5109    7.4739   -5.9434 H   0  0  0  0  0  0  0  0  0  0  0  0
   25.7995    6.0344   -7.4550 H   0  0  0  0  0  0  0  0  0  0  0  0
   25.9018   10.8895   -8.1830 H   0  0  0  0  0  0  0  0  0  0  0  0
   27.5189   10.1098  -10.2403 H   0  0  0  0  0  0  0  0  0  0  0  0
   25.1566   10.7279   -4.4118 H   0  0  0  0  0  0  0  0  0  0  0  0
   26.4588   10.6150   -5.6439 H   0  0  0  0  0  0  0  0  0  0  0  0
   25.3419   12.0218   -5.6439 H   0  0  0  0  0  0  0  0  0  0  0  0
   29.0967    7.1260  -11.8805 H   0  0  0  0  0  0  0  0  0  0  0  0
   28.4820   11.9362  -13.4741 H   0  0  0  0  0  0  0  0  0  0  0  0
   26.2478    9.8882  -11.6617 H   0  0  0  0  0  0  0  0  0  0  0  0
   26.3033   10.7924  -13.2129 H   0  0  0  0  0  0  0  0  0  0  0  0
   26.4278    9.0004  -13.2129 H   0  0  0  0  0  0  0  0  0  0  0  0
   31.9159   12.2341  -12.2740 H   0  0  0  0  0  0  0  0  0  0  0  0
   32.1918   11.2956  -13.7806 H   0  0  0  0  0  0  0  0  0  0  0  0
   31.0437   12.6772  -13.7806 H   0  0  0  0  0  0  0  0  0  0  0  0
  1  7  1  0
  1  2  2  0
  1  5  1  0
  2  3  1  0
  3  4  1  0
  4  8  2  0
  4  6  1  0
  6 10  1  0
  6  7  2  0
  8  9  1  0
  9 12  1  0
  9 10  2  0
 12 13  1  0
 13 17  1  0
 13 14  2  0
 14 15  1  0
 15 19  1  0
 15 16  2  0
 16 17  1  0
 17 18  1  0
  5 11  1  0
  2 20  1  0
  3 21  1  0
  7 22  1  0
 10 23  1  0
 11 24  1  1
 11 25  1  0
 11 26  1  0
 12 27  1  0
 16 28  1  0
 18 29  1  1
 18 30  1  0
 18 31  1  0
 19 32  1  1
 19 33  1  0
 19 34  1  0
M  END
>  <Pose ID>  (1)
3

>  <Score>  (1)
-7.227904796600342

>  <smiles>  (1)
COc1c[nH]c2nc(Nc3nc(C)cn3C)cc-2c1

$$$$

     RDKit          3D

 34 36  0  0  0  0  0  0  0  0999 V2000
   25.1380    9.2670   -6.9840 C   0  0  0  0  0  0  0  0  0  0  0  0
   25.0350    7.8900   -6.8070 C   0  0  0  0  0  0  0  0  0  0  0  0
   25.7210    7.0260   -7.6500 N   0  0  0  0  0  0  0  0  0  0  0  0
   26.5170    7.5400   -8.6710 C   0  0  0  0  0  0  0  0  0  0  0  0
   24.5960   10.2530   -6.3240 O   0  0  0  0  0  0  0  0  0  0  0  0
   26.6230    8.9120   -8.8450 C   0  0  0  0  0  0  0  0  0  0  0  0
   25.9360    9.7760   -8.0050 C   0  0  0  0  0  0  0  0  0  0  0  0
   27.2670    6.9130   -9.5960 N   0  0  0  0  0  0  0  0  0  0  0  0
   27.8680    7.8630  -10.3910 C   0  0  0  0  0  0  0  0  0  0  0  0
   27.3630    9.0430   -9.8040 C   0  0  0  0  0  0  0  0  0  0  0  0
   25.5010   10.8880   -5.4280 C   0  0  1  0  0  0  0  0  0  0  0  0
   28.7230    7.8880  -11.4670 N   0  0  0  0  0  0  0  0  0  0  0  0
   29.1180    9.0690  -12.0000 C   0  0  0  0  0  0  0  0  0  0  0  0
   30.4730    9.4680  -12.0990 N   0  0  0  0  0  0  0  0  0  0  0  0
   30.5080   10.7300  -12.7050 C   0  0  0  0  0  0  0  0  0  0  0  0
   29.1220   10.9500  -12.9110 C   0  0  0  0  0  0  0  0  0  0  0  0
   28.2980    9.9590  -12.5020 N   0  0  0  0  0  0  0  0  0  0  0  0
   26.8290    9.9390  -12.6380 C   0  0  1  0  0  0  0  0  0  0  0  0
   26.2040   10.3650  -13.9680 C   0  0  1  0  0  0  0  0  0  0  0  0
   24.4090    7.4858   -5.9978 H   0  0  0  0  0  0  0  0  0  0  0  0
   25.6415    6.0072   -7.5207 H   0  0  0  0  0  0  0  0  0  0  0  0
   26.0217   10.8636   -8.1456 H   0  0  0  0  0  0  0  0  0  0  0  0
   27.6259   10.0370  -10.1950 H   0  0  0  0  0  0  0  0  0  0  0  0
   25.1997   10.6766   -4.3914 H   0  0  0  0  0  0  0  0  0  0  0  0
   26.5173   10.5039   -5.6000 H   0  0  0  0  0  0  0  0  0  0  0  0
   25.4856   11.9744   -5.6000 H   0  0  0  0  0  0  0  0  0  0  0  0
   29.0651    7.0041  -11.8701 H   0  0  0  0  0  0  0  0  0  0  0  0
   31.3679   11.3701  -12.9517 H   0  0  0  0  0  0  0  0  0  0  0  0
   28.7405   11.8712  -13.3755 H   0  0  0  0  0  0  0  0  0  0  0  0
   26.5007    8.9075  -12.4427 H   0  0  0  0  0  0  0  0  0  0  0  0
   26.4865   10.7051  -11.9268 H   0  0  0  0  0  0  0  0  0  0  0  0
   25.3093   10.9748  -13.7740 H   0  0  0  0  0  0  0  0  0  0  0  0
   26.9325   10.9554  -14.5431 H   0  0  0  0  0  0  0  0  0  0  0  0
   25.9208    9.4711  -14.5431 H   0  0  0  0  0  0  0  0  0  0  0  0
  1  7  1  0
  1  2  2  0
  1  5  1  0
  2  3  1  0
  3  4  1  0
  4  8  2  0
  4  6  1  0
  6 10  1  0
  6  7  2  0
  8  9  1  0
  9 12  1  0
  9 10  2  0
 12 13  1  0
 13 17  1  0
 13 14  2  0
 14 15  1  0
 15 16  2  0
 16 17  1  0
 17 18  1  0
 18 19  1  0
  5 11  1  0
  2 20  1  0
  3 21  1  0
  7 22  1  0
 10 23  1  0
 11 24  1  1
 11 25  1  0
 11 26  1  0
 12 27  1  0
 15 28  1  0
 16 29  1  0
 18 30  1  1
 18 31  1  0
 19 32  1  1
 19 33  1  0
 19 34  1  0
M  END
>  <Pose ID>  (2)
4

>  <Score>  (2)
-7.226192951202393

>  <smiles>  (2)
CCn1ccnc1Nc1cc2cc(OC)c[nH]c-2n1

$$$$

     RDKit          3D

 31 33  0  0  0  0  0  0  0  0999 V2000
   25.1370    9.2670   -6.9870 C   0  0  0  0  0  0  0  0  0  0  0  0
   25.0200    7.8920   -6.8040 C   0  0  0  0  0  0  0  0  0  0  0  0
   25.7060    7.0180   -7.6360 N   0  0  0  0  0  0  0  0  0  0  0  0
   26.5150    7.5190   -8.6530 C   0  0  0  0  0  0  0  0  0  0  0  0
   24.5980   10.2610   -6.3370 O   0  0  0  0  0  0  0  0  0  0  0  0
   26.6340    8.8890   -8.8340 C   0  0  0  0  0  0  0  0  0  0  0  0
   25.9470    9.7640   -8.0040 C   0  0  0  0  0  0  0  0  0  0  0  0
   27.2670    6.8810   -9.5690 N   0  0  0  0  0  0  0  0  0  0  0  0
   27.8830    7.8220  -10.3640 C   0  0  0  0  0  0  0  0  0  0  0  0
   27.3830    9.0090   -9.7870 C   0  0  0  0  0  0  0  0  0  0  0  0
   25.5010   10.8930   -5.4370 C   0  0  1  0  0  0  0  0  0  0  0  0
   28.7470    7.8330  -11.4330 N   0  0  0  0  0  0  0  0  0  0  0  0
   29.1560    9.0080  -11.9690 C   0  0  0  0  0  0  0  0  0  0  0  0
   30.5150    9.3950  -12.0580 N   0  0  0  0  0  0  0  0  0  0  0  0
   30.5660   10.6540  -12.6710 C   0  0  0  0  0  0  0  0  0  0  0  0
   29.1840   10.8840  -12.8890 C   0  0  0  0  0  0  0  0  0  0  0  0
   28.3480    9.9020  -12.4820 N   0  0  0  0  0  0  0  0  0  0  0  0
   26.8800    9.8940  -12.6300 C   0  0  1  0  0  0  0  0  0  0  0  0
   24.3829    7.4975   -5.9988 H   0  0  0  0  0  0  0  0  0  0  0  0
   25.6169    6.0007   -7.5015 H   0  0  0  0  0  0  0  0  0  0  0  0
   26.0427   10.8501   -8.1499 H   0  0  0  0  0  0  0  0  0  0  0  0
   27.6576    9.9988  -10.1806 H   0  0  0  0  0  0  0  0  0  0  0  0
   25.1963   10.6797   -4.4018 H   0  0  0  0  0  0  0  0  0  0  0  0
   26.5174   10.5081   -5.6067 H   0  0  0  0  0  0  0  0  0  0  0  0
   25.4874   11.9797   -5.6067 H   0  0  0  0  0  0  0  0  0  0  0  0
   29.0850    6.9439  -11.8283 H   0  0  0  0  0  0  0  0  0  0  0  0
   31.4332   11.2855  -12.9143 H   0  0  0  0  0  0  0  0  0  0  0  0
   28.8139   11.8061  -13.3610 H   0  0  0  0  0  0  0  0  0  0  0  0
   26.4112    9.8914  -11.6349 H   0  0  0  0  0  0  0  0  0  0  0  0
   26.5623   10.7904  -13.1827 H   0  0  0  0  0  0  0  0  0  0  0  0
   26.5721    8.9942  -13.1827 H   0  0  0  0  0  0  0  0  0  0  0  0
  1  7  1  0
  1  2  2  0
  1  5  1  0
  2  3  1  0
  3  4  1  0
  4  8  2  0
  4  6  1  0
  6 10  1  0
  6  7  2  0
  8  9  1  0
  9 12  1  0
  9 10  2  0
 12 13  1  0
 13 17  1  0
 13 14  2  0
 14 15  1  0
 15 16  2  0
 16 17  1  0
 17 18  1  0
  5 11  1  0
  2 19  1  0
  3 20  1  0
  7 21  1  0
 10 22  1  0
 11 23  1  1
 11 24  1  0
 11 25  1  0
 12 26  1  0
 15 27  1  0
 16 28  1  0
 18 29  1  1
 18 30  1  0
 18 31  1  0
M  END
>  <Pose ID>  (3)
1

>  <Score>  (3)
-7.138571262359619

>  <smiles>  (3)
COc1c[nH]c2nc(Nc3nccn3C)cc-2c1

$$$$

     RDKit          3D

 34 36  0  0  0  0  0  0  0  0999 V2000
   25.1410    9.2720   -6.9880 C   0  0  0  0  0  0  0  0  0  0  0  0
   25.0100    7.8990   -6.8010 C   0  0  0  0  0  0  0  0  0  0  0  0
   25.6900    7.0150   -7.6270 N   0  0  0  0  0  0  0  0  0  0  0  0
   26.5070    7.5050   -8.6440 C   0  0  0  0  0  0  0  0  0  0  0  0
   24.6100   10.2740   -6.3440 O   0  0  0  0  0  0  0  0  0  0  0  0
   26.6400    8.8730   -8.8290 C   0  0  0  0  0  0  0  0  0  0  0  0
   25.9590    9.7570   -8.0040 C   0  0  0  0  0  0  0  0  0  0  0  0
   27.2550    6.8560   -9.5550 N   0  0  0  0  0  0  0  0  0  0  0  0
   27.8830    7.7880  -10.3510 C   0  0  0  0  0  0  0  0  0  0  0  0
   27.3930    8.9820   -9.7800 C   0  0  0  0  0  0  0  0  0  0  0  0
   25.5160   10.9000   -5.4430 C   0  0  1  0  0  0  0  0  0  0  0  0
   28.7510    7.7860  -11.4180 N   0  0  0  0  0  0  0  0  0  0  0  0
   29.1730    8.9550  -11.9570 C   0  0  0  0  0  0  0  0  0  0  0  0
   30.5360    9.3290  -12.0430 N   0  0  0  0  0  0  0  0  0  0  0  0
   30.6010   10.5850  -12.6600 C   0  0  0  0  0  0  0  0  0  0  0  0
   29.2220   10.8280  -12.8830 C   0  0  0  0  0  0  0  0  0  0  0  0
   28.3750    9.8550  -12.4750 N   0  0  0  0  0  0  0  0  0  0  0  0
   26.9080    9.8610  -12.6280 C   0  0  1  0  0  0  0  0  0  0  0  0
   26.1050   11.2450   -8.2090 C   0  0  1  0  0  0  0  0  0  0  0  0
   24.3661    7.5137   -5.9967 H   0  0  0  0  0  0  0  0  0  0  0  0
   25.5910    5.9991   -7.4886 H   0  0  0  0  0  0  0  0  0  0  0  0
   27.6786    9.9676  -10.1764 H   0  0  0  0  0  0  0  0  0  0  0  0
   25.2092   10.6880   -4.4081 H   0  0  0  0  0  0  0  0  0  0  0  0
   26.5302   10.5091   -5.6121 H   0  0  0  0  0  0  0  0  0  0  0  0
   25.5091   11.9869   -5.6121 H   0  0  0  0  0  0  0  0  0  0  0  0
   29.0814    6.8921  -11.8087 H   0  0  0  0  0  0  0  0  0  0  0  0
   31.4751   11.2071  -12.9029 H   0  0  0  0  0  0  0  0  0  0  0  0
   28.8624   11.7521  -13.3591 H   0  0  0  0  0  0  0  0  0  0  0  0
   26.4357    9.8629  -11.6345 H   0  0  0  0  0  0  0  0  0  0  0  0
   26.6008   10.7604  -13.1818 H   0  0  0  0  0  0  0  0  0  0  0  0
   26.5934    8.9641  -13.1818 H   0  0  0  0  0  0  0  0  0  0  0  0
   26.1542   11.7467   -7.2313 H   0  0  0  0  0  0  0  0  0  0  0  0
   27.0274   11.4487   -8.7725 H   0  0  0  0  0  0  0  0  0  0  0  0
   25.2397   11.6241   -8.7725 H   0  0  0  0  0  0  0  0  0  0  0  0
  1  7  1  0
  1  2  2  0
  1  5  1  0
  2  3  1  0
  3  4  1  0
  4  8  2  0
  4  6  1  0
  6 10  1  0
  6  7  2  0
  7 19  1  0
  8  9  1  0
  9 12  1  0
  9 10  2  0
 12 13  1  0
 13 17  1  0
 13 14  2  0
 14 15  1  0
 15 16  2  0
 16 17  1  0
 17 18  1  0
  5 11  1  0
  2 20  1  0
  3 21  1  0
 10 22  1  0
 11 23  1  1
 11 24  1  0
 11 25  1  0
 12 26  1  0
 15 27  1  0
 16 28  1  0
 18 29  1  1
 18 30  1  0
 18 31  1  0
 19 32  1  1
 19 33  1  0
 19 34  1  0
M  END
>  <Pose ID>  (4)
7

>  <Score>  (4)
-6.663896083831787

>  <smiles>  (4)
COc1c[nH]c2nc(Nc3nccn3C)cc-2c1C

$$$$

     RDKit          3D

 34 36  0  0  0  0  0  0  0  0999 V2000
   25.1380    9.2670   -6.9850 C   0  0  0  0  0  0  0  0  0  0  0  0
   25.0310    7.8900   -6.8110 C   0  0  0  0  0  0  0  0  0  0  0  0
   25.7220    7.0260   -7.6490 N   0  0  0  0  0  0  0  0  0  0  0  0
   26.5270    7.5400   -8.6640 C   0  0  0  0  0  0  0  0  0  0  0  0
   24.5930   10.2520   -6.3270 O   0  0  0  0  0  0  0  0  0  0  0  0
   26.6360    8.9120   -8.8360 C   0  0  0  0  0  0  0  0  0  0  0  0
   25.9440    9.7760   -7.9990 C   0  0  0  0  0  0  0  0  0  0  0  0
   27.2830    6.9130   -9.5850 N   0  0  0  0  0  0  0  0  0  0  0  0
   27.8910    7.8640  -10.3740 C   0  0  0  0  0  0  0  0  0  0  0  0
   27.3830    9.0430   -9.7880 C   0  0  0  0  0  0  0  0  0  0  0  0
   25.4920   10.8850   -5.4240 C   0  0  1  0  0  0  0  0  0  0  0  0
   28.7540    7.8880  -11.4430 N   0  0  0  0  0  0  0  0  0  0  0  0
   29.1540    9.0700  -11.9720 C   0  0  0  0  0  0  0  0  0  0  0  0
   30.5100    9.4670  -12.0590 N   0  0  0  0  0  0  0  0  0  0  0  0
   30.5520   10.7300  -12.6640 C   0  0  0  0  0  0  0  0  0  0  0  0
   29.1680   10.9520  -12.8790 C   0  0  0  0  0  0  0  0  0  0  0  0
   28.3400    9.9620  -12.4780 N   0  0  0  0  0  0  0  0  0  0  0  0
   26.8720    9.9440  -12.6250 C   0  0  1  0  0  0  0  0  0  0  0  0
   28.6510   12.2180  -13.5170 C   0  0  1  0  0  0  0  0  0  0  0  0
   24.3975    7.4859   -6.0077 H   0  0  0  0  0  0  0  0  0  0  0  0
   25.6401    6.0073   -7.5211 H   0  0  0  0  0  0  0  0  0  0  0  0
   26.0326   10.8637   -8.1371 H   0  0  0  0  0  0  0  0  0  0  0  0
   27.6505   10.0374  -10.1749 H   0  0  0  0  0  0  0  0  0  0  0  0
   25.1855   10.6692   -4.3898 H   0  0  0  0  0  0  0  0  0  0  0  0
   26.5099   10.5032   -5.5920 H   0  0  0  0  0  0  0  0  0  0  0  0
   25.4757   11.9720   -5.5920 H   0  0  0  0  0  0  0  0  0  0  0  0
   29.0984    7.0040  -11.8440 H   0  0  0  0  0  0  0  0  0  0  0  0
   31.4147   11.3688  -12.9043 H   0  0  0  0  0  0  0  0  0  0  0  0
   26.4039    9.9383  -11.6296 H   0  0  0  0  0  0  0  0  0  0  0  0
   26.5478   10.8382  -13.1775 H   0  0  0  0  0  0  0  0  0  0  0  0
   26.5699    9.0421  -13.1775 H   0  0  0  0  0  0  0  0  0  0  0  0
   28.3596   12.9316  -12.7322 H   0  0  0  0  0  0  0  0  0  0  0  0
   29.4397   12.6622  -14.1419 H   0  0  0  0  0  0  0  0  0  0  0  0
   27.7768   11.9831  -14.1419 H   0  0  0  0  0  0  0  0  0  0  0  0
  1  7  1  0
  1  2  2  0
  1  5  1  0
  2  3  1  0
  3  4  1  0
  4  8  2  0
  4  6  1  0
  6 10  1  0
  6  7  2  0
  8  9  1  0
  9 12  1  0
  9 10  2  0
 12 13  1  0
 13 17  1  0
 13 14  2  0
 14 15  1  0
 15 16  2  0
 16 19  1  0
 16 17  1  0
 17 18  1  0
  5 11  1  0
  2 20  1  0
  3 21  1  0
  7 22  1  0
 10 23  1  0
 11 24  1  1
 11 25  1  0
 11 26  1  0
 12 27  1  0
 15 28  1  0
 18 29  1  1
 18 30  1  0
 18 31  1  0
 19 32  1  1
 19 33  1  0
 19 34  1  0
M  END
>  <Pose ID>  (5)
2

>  <Score>  (5)
-6.5613532066345215

>  <smiles>  (5)
COc1c[nH]c2nc(Nc3ncc(C)n3C)cc-2c1

$$$$

     RDKit          3D

 34 36  0  0  0  0  0  0  0  0999 V2000
   25.1500    9.2500   -7.0050 C   0  0  0  0  0  0  0  0  0  0  0  0
   25.0330    7.8740   -6.8270 C   0  0  0  0  0  0  0  0  0  0  0  0
   25.7210    7.0030   -7.6610 N   0  0  0  0  0  0  0  0  0  0  0  0
   26.5330    7.5090   -8.6740 C   0  0  0  0  0  0  0  0  0  0  0  0
   24.6090   10.2410   -6.3520 O   0  0  0  0  0  0  0  0  0  0  0  0
   26.6510    8.8790   -8.8490 C   0  0  0  0  0  0  0  0  0  0  0  0
   25.9620    9.7510   -8.0180 C   0  0  0  0  0  0  0  0  0  0  0  0
   27.2870    6.8740   -9.5900 N   0  0  0  0  0  0  0  0  0  0  0  0
   27.9040    7.8190  -10.3800 C   0  0  0  0  0  0  0  0  0  0  0  0
   27.4020    9.0030   -9.8000 C   0  0  0  0  0  0  0  0  0  0  0  0
   25.5090   10.8700   -5.4480 C   0  0  1  0  0  0  0  0  0  0  0  0
   28.7710    7.8340  -11.4470 N   0  0  0  0  0  0  0  0  0  0  0  0
   29.1810    9.0110  -11.9780 C   0  0  0  0  0  0  0  0  0  0  0  0
   30.5400    9.3990  -12.0620 N   0  0  0  0  0  0  0  0  0  0  0  0
   30.5910   10.6610  -12.6700 C   0  0  0  0  0  0  0  0  0  0  0  0
   29.2100   10.8910  -12.8910 C   0  0  0  0  0  0  0  0  0  0  0  0
   28.3730    9.9070  -12.4890 N   0  0  0  0  0  0  0  0  0  0  0  0
   26.9060    9.8990  -12.6410 C   0  0  1  0  0  0  0  0  0  0  0  0
   24.1570    7.3280   -5.7270 C   0  0  1  0  0  0  0  0  0  0  0  0
   25.6314    5.9851   -7.5312 H   0  0  0  0  0  0  0  0  0  0  0  0
   26.0576   10.8376   -8.1599 H   0  0  0  0  0  0  0  0  0  0  0  0
   27.6767    9.9944  -10.1894 H   0  0  0  0  0  0  0  0  0  0  0  0
   25.2007   10.6545   -4.4143 H   0  0  0  0  0  0  0  0  0  0  0  0
   26.5257   10.4848   -5.6153 H   0  0  0  0  0  0  0  0  0  0  0  0
   25.4967   11.9571   -5.6153 H   0  0  0  0  0  0  0  0  0  0  0  0
   29.1103    6.9464  -11.8444 H   0  0  0  0  0  0  0  0  0  0  0  0
   31.4583   11.2943  -12.9084 H   0  0  0  0  0  0  0  0  0  0  0  0
   28.8408   11.8143  -13.3613 H   0  0  0  0  0  0  0  0  0  0  0  0
   26.4344    9.8964  -11.6472 H   0  0  0  0  0  0  0  0  0  0  0  0
   26.5898   10.7954  -13.1946 H   0  0  0  0  0  0  0  0  0  0  0  0
   26.5996    8.9992  -13.1946 H   0  0  0  0  0  0  0  0  0  0  0  0
   24.5859    7.5953   -4.7500 H   0  0  0  0  0  0  0  0  0  0  0  0
   23.1481    7.7575   -5.8145 H   0  0  0  0  0  0  0  0  0  0  0  0
   24.0982    6.2331   -5.8145 H   0  0  0  0  0  0  0  0  0  0  0  0
  1  7  1  0
  1  2  2  0
  1  5  1  0
  2  3  1  0
  2 19  1  0
  3  4  1  0
  4  8  2  0
  4  6  1  0
  6 10  1  0
  6  7  2  0
  8  9  1  0
  9 12  1  0
  9 10  2  0
 12 13  1  0
 13 17  1  0
 13 14  2  0
 14 15  1  0
 15 16  2  0
 16 17  1  0
 17 18  1  0
  5 11  1  0
  3 20  1  0
  7 21  1  0
 10 22  1  0
 11 23  1  1
 11 24  1  0
 11 25  1  0
 12 26  1  0
 15 27  1  0
 16 28  1  0
 18 29  1  1
 18 30  1  0
 18 31  1  0
 19 32  1  1
 19 33  1  0
 19 34  1  0
M  END
>  <Pose ID>  (6)
6

>  <Score>  (6)
-6.0152764320373535

>  <smiles>  (6)
COc1cc2cc(Nc3nccn3C)nc-2[nH]c1C

$$$$

     RDKit          3D

 34 36  0  0  0  0  0  0  0  0999 V2000
   25.2050    9.2600   -6.9170 C   0  0  0  0  0  0  0  0  0  0  0  0
   25.0250    7.8880   -6.7590 C   0  0  0  0  0  0  0  0  0  0  0  0
   25.6620    7.0000   -7.6140 N   0  0  0  0  0  0  0  0  0  0  0  0
   26.4850    7.4820   -8.6290 C   0  0  0  0  0  0  0  0  0  0  0  0
   24.7190   10.2650   -6.2440 O   0  0  0  0  0  0  0  0  0  0  0  0
   26.6670    8.8480   -8.7850 C   0  0  0  0  0  0  0  0  0  0  0  0
   26.0290    9.7380   -7.9320 C   0  0  0  0  0  0  0  0  0  0  0  0
   27.1980    6.8270   -9.5640 N   0  0  0  0  0  0  0  0  0  0  0  0
   27.8510    7.7540  -10.3470 C   0  0  0  0  0  0  0  0  0  0  0  0
   27.4120    8.9520   -9.7430 C   0  0  0  0  0  0  0  0  0  0  0  0
   25.6580   10.8370   -5.3400 C   0  0  1  0  0  0  0  0  0  0  0  0
   28.7050    7.7450  -11.4240 N   0  0  0  0  0  0  0  0  0  0  0  0
   29.1640    8.9100  -11.9420 C   0  0  0  0  0  0  0  0  0  0  0  0
   30.5390    9.2350  -12.0360 N   0  0  0  0  0  0  0  0  0  0  0  0
   30.6440   10.5020  -12.6260 C   0  0  0  0  0  0  0  0  0  0  0  0
   29.2720   10.8000  -12.8260 C   0  0  0  0  0  0  0  0  0  0  0  0
   28.3950    9.8510  -12.4300 N   0  0  0  0  0  0  0  0  0  0  0  0
   26.9270    9.9140  -12.5640 C   0  0  1  0  0  0  0  0  0  0  0  0
   26.1300   12.1490   -6.1240 C   0  0  1  0  0  0  0  0  0  0  0  0
   24.3771    7.5079   -5.9554 H   0  0  0  0  0  0  0  0  0  0  0  0
   25.5264    5.9856   -7.4982 H   0  0  0  0  0  0  0  0  0  0  0  0
   26.1746   10.8210   -8.0581 H   0  0  0  0  0  0  0  0  0  0  0  0
   27.7286    9.9355  -10.1206 H   0  0  0  0  0  0  0  0  0  0  0  0
   25.1827   11.0947   -4.3820 H   0  0  0  0  0  0  0  0  0  0  0  0
   26.4841   10.1603   -5.0763 H   0  0  0  0  0  0  0  0  0  0  0  0
   28.9973    6.8488  -11.8391 H   0  0  0  0  0  0  0  0  0  0  0  0
   31.5376   11.0968  -12.8660 H   0  0  0  0  0  0  0  0  0  0  0  0
   28.9412   11.7473  -13.2767 H   0  0  0  0  0  0  0  0  0  0  0  0
   26.4681    9.9337  -11.5645 H   0  0  0  0  0  0  0  0  0  0  0  0
   26.6477   10.8250  -13.1137 H   0  0  0  0  0  0  0  0  0  0  0  0
   26.5707    9.0303  -13.1137 H   0  0  0  0  0  0  0  0  0  0  0  0
   26.4103   12.9280   -5.3997 H   0  0  0  0  0  0  0  0  0  0  0  0
   26.9973   11.9066   -6.7557 H   0  0  0  0  0  0  0  0  0  0  0  0
   25.3070   12.5146   -6.7557 H   0  0  0  0  0  0  0  0  0  0  0  0
  1  7  1  0
  1  2  2  0
  1  5  1  0
  2  3  1  0
  3  4  1  0
  4  8  2  0
  4  6  1  0
  6 10  1  0
  6  7  2  0
  8  9  1  0
  9 12  1  0
  9 10  2  0
 12 13  1  0
 13 17  1  0
 13 14  2  0
 14 15  1  0
 15 16  2  0
 16 17  1  0
 17 18  1  0
  5 11  1  0
 11 19  1  0
  2 20  1  0
  3 21  1  0
  7 22  1  0
 10 23  1  0
 11 24  1  1
 11 25  1  0
 12 26  1  0
 15 27  1  0
 16 28  1  0
 18 29  1  1
 18 30  1  0
 18 31  1  0
 19 32  1  1
 19 33  1  0
 19 34  1  0
M  END
>  <Pose ID>  (7)
8

>  <Score>  (7)
-5.542926788330078

>  <smiles>  (7)
CCOc1c[nH]c2nc(Nc3nccn3C)cc-2c1

$$$$

     RDKit          3D

 28 29  0  0  0  0  0  0  0  0999 V2000
   25.5110    9.9680   -6.5140 C   0  0  0  0  0  0  0  0  0  0  0  0
   25.5660    8.5800   -6.5920 C   0  0  0  0  0  0  0  0  0  0  0  0
   26.7220    7.8740   -7.2650 N   0  0  0  0  0  0  0  0  0  0  0  0
   24.4510   10.5840   -5.8580 N   0  0  0  0  0  0  0  0  0  0  0  0
   23.4490    9.8110   -5.2770 C   0  0  0  0  0  0  0  0  0  0  0  0
   23.5060    8.4270   -5.3560 N   0  0  0  0  0  0  0  0  0  0  0  0
   24.5620    7.8160   -6.0090 C   0  0  0  0  0  0  0  0  0  0  0  0
   22.5020   10.3640   -4.6910 O   0  0  0  0  0  0  0  0  0  0  0  0
   24.5140   12.0570   -5.8250 C   0  0  2  0  0  0  0  0  0  0  0  0
   26.6750    7.4430   -8.5130 C   0  0  0  0  0  0  0  0  0  0  0  0
   25.5790    7.6230   -9.2890 C   0  0  0  0  0  0  0  0  0  0  0  0
   26.0090    7.1400  -10.5980 N   0  0  0  0  0  0  0  0  0  0  0  0
   27.2000    6.6960  -10.5870 C   0  0  0  0  0  0  0  0  0  0  0  0
   27.7760    6.8020   -9.3110 O   0  0  0  0  0  0  0  0  0  0  0  0
   25.6460   12.5910   -4.9250 C   0  0  1  0  0  0  0  0  0  0  0  0
   23.0820   12.7270   -5.5630 C   0  0  1  0  0  0  0  0  0  0  0  0
   26.3049   10.5772   -6.9706 H   0  0  0  0  0  0  0  0  0  0  0  0
   27.5860    7.7222   -6.7253 H   0  0  0  0  0  0  0  0  0  0  0  0
   24.6071    6.7185   -6.0670 H   0  0  0  0  0  0  0  0  0  0  0  0
   24.7959   12.3841   -6.8367 H   0  0  0  0  0  0  0  0  0  0  0  0
   24.6001    8.0343   -9.0017 H   0  0  0  0  0  0  0  0  0  0  0  0
   27.7145    6.2811  -11.4663 H   0  0  0  0  0  0  0  0  0  0  0  0
   25.3677   12.4597   -3.8689 H   0  0  0  0  0  0  0  0  0  0  0  0
   26.5722   12.0349   -5.1319 H   0  0  0  0  0  0  0  0  0  0  0  0
   25.8058   13.6595   -5.1319 H   0  0  0  0  0  0  0  0  0  0  0  0
   22.9079   12.8084   -4.4799 H   0  0  0  0  0  0  0  0  0  0  0  0
   23.0582   13.7297   -6.0146 H   0  0  0  0  0  0  0  0  0  0  0  0
   22.2969   12.1027   -6.0146 H   0  0  0  0  0  0  0  0  0  0  0  0
  1  2  2  0
  1  4  1  0
  2  3  1  0
  2  7  1  0
  4  9  1  0
  4  5  1  0
  5  6  1  0
  5  8  2  0
  6  7  2  0
  9 16  1  0
  9 15  1  0
  3 10  1  0
 10 14  1  0
 10 11  2  0
 11 12  1  0
 12 13  2  0
 13 14  1  0
  1 17  1  0
  3 18  1  0
  7 19  1  0
  9 20  1  6
 11 21  1  0
 13 22  1  0
 15 23  1  1
 15 24  1  0
 15 25  1  0
 16 26  1  1
 16 27  1  0
 16 28  1  0
M  END
>  <Pose ID>  (8)
13

>  <Score>  (8)
-5.483748435974121

>  <smiles>  (8)
CC(C)n1cc(Nc2cnco2)cnc1=O

$$$$

     RDKit          3D

 34 36  0  0  0  0  0  0  0  0999 V2000
   25.1420    9.2970   -7.0190 C   0  0  0  0  0  0  0  0  0  0  0  0
   25.0250    7.9250   -6.8160 C   0  0  0  0  0  0  0  0  0  0  0  0
   25.7170    7.0390   -7.6310 N   0  0  0  0  0  0  0  0  0  0  0  0
   26.5320    7.5250   -8.6500 C   0  0  0  0  0  0  0  0  0  0  0  0
   24.5980   10.3000   -6.3870 O   0  0  0  0  0  0  0  0  0  0  0  0
   26.6510    8.8920   -8.8510 C   0  0  0  0  0  0  0  0  0  0  0  0
   25.9580    9.7790   -8.0380 C   0  0  0  0  0  0  0  0  0  0  0  0
   27.2900    6.8740   -9.5520 N   0  0  0  0  0  0  0  0  0  0  0  0
   27.9100    7.8040  -10.3570 C   0  0  0  0  0  0  0  0  0  0  0  0
   27.4060    8.9990   -9.8010 C   0  0  0  0  0  0  0  0  0  0  0  0
   25.4950   10.9460   -5.4920 C   0  0  1  0  0  0  0  0  0  0  0  0
   28.7810    7.7990  -11.4200 N   0  0  0  0  0  0  0  0  0  0  0  0
   29.1920    8.9670  -11.9720 C   0  0  0  0  0  0  0  0  0  0  0  0
   30.5510    9.3530  -12.0580 N   0  0  0  0  0  0  0  0  0  0  0  0
   30.6050   10.6030  -12.6900 C   0  0  0  0  0  0  0  0  0  0  0  0
   29.2240   10.8280  -12.9200 C   0  0  0  0  0  0  0  0  0  0  0  0
   28.3870    9.8520  -12.5030 N   0  0  0  0  0  0  0  0  0  0  0  0
   26.9200    9.8400  -12.6600 C   0  0  1  0  0  0  0  0  0  0  0  0
   24.6990   12.2440   -5.0450 C   0  0  1  0  0  0  0  0  0  0  0  0
   24.3834    7.5420   -6.0087 H   0  0  0  0  0  0  0  0  0  0  0  0
   25.6276    6.0238   -7.4820 H   0  0  0  0  0  0  0  0  0  0  0  0
   26.0540   10.8628   -8.1994 H   0  0  0  0  0  0  0  0  0  0  0  0
   27.6825    9.9831  -10.2072 H   0  0  0  0  0  0  0  0  0  0  0  0
   25.7182   10.3040   -4.6271 H   0  0  0  0  0  0  0  0  0  0  0  0
   26.4677   11.1761   -5.9512 H   0  0  0  0  0  0  0  0  0  0  0  0
   29.1229    6.9043  -11.7988 H   0  0  0  0  0  0  0  0  0  0  0  0
   31.4731   11.2316  -12.9375 H   0  0  0  0  0  0  0  0  0  0  0  0
   28.8558   11.7422  -13.4086 H   0  0  0  0  0  0  0  0  0  0  0  0
   26.4451    9.8361  -11.6678 H   0  0  0  0  0  0  0  0  0  0  0  0
   26.6033   10.7356  -13.2146 H   0  0  0  0  0  0  0  0  0  0  0  0
   26.6179    8.9394  -13.2146 H   0  0  0  0  0  0  0  0  0  0  0  0
   24.6678   12.2949   -3.9466 H   0  0  0  0  0  0  0  0  0  0  0  0
   25.2044   13.1380   -5.4393 H   0  0  0  0  0  0  0  0  0  0  0  0
   23.6731   12.1989   -5.4393 H   0  0  0  0  0  0  0  0  0  0  0  0
  1  7  1  0
  1  2  2  0
  1  5  1  0
  2  3  1  0
  3  4  1  0
  4  8  2  0
  4  6  1  0
  6 10  1  0
  6  7  2  0
  8  9  1  0
  9 12  1  0
  9 10  2  0
 12 13  1  0
 13 17  1  0
 13 14  2  0
 14 15  1  0
 15 16  2  0
 16 17  1  0
 17 18  1  0
  5 11  1  0
 11 19  1  0
  2 20  1  0
  3 21  1  0
  7 22  1  0
 10 23  1  0
 11 24  1  1
 11 25  1  0
 12 26  1  0
 15 27  1  0
 16 28  1  0
 18 29  1  1
 18 30  1  0
 18 31  1  0
 19 32  1  1
 19 33  1  0
 19 34  1  0
M  END
>  <Pose ID>  (9)
5

>  <Score>  (9)
-5.44829797744751

>  <smiles>  (9)
CCOc1c[nH]c2nc(Nc3nccn3C)cc-2c1

$$$$

     RDKit          3D

 28 29  0  0  0  0  0  0  0  0999 V2000
   24.8560   10.1270   -6.8240 C   0  0  0  0  0  0  0  0  0  0  0  0
   25.2590    8.8050   -6.6660 C   0  0  0  0  0  0  0  0  0  0  0  0
   26.5960    8.3220   -7.1820 N   0  0  0  0  0  0  0  0  0  0  0  0
   23.6350   10.5470   -6.3070 N   0  0  0  0  0  0  0  0  0  0  0  0
   22.8200    9.6440   -5.6290 C   0  0  0  0  0  0  0  0  0  0  0  0
   23.2250    8.3260   -5.4710 N   0  0  0  0  0  0  0  0  0  0  0  0
   24.4400    7.9110   -5.9870 C   0  0  0  0  0  0  0  0  0  0  0  0
   21.7290   10.0210   -5.1670 O   0  0  0  0  0  0  0  0  0  0  0  0
   23.3280   11.9730   -6.5220 C   0  0  1  0  0  0  0  0  0  0  0  0
   26.7400    7.7030   -8.3400 C   0  0  0  0  0  0  0  0  0  0  0  0
   25.6870    7.4720   -9.1610 C   0  0  0  0  0  0  0  0  0  0  0  0
   26.3090    6.9150  -10.3590 N   0  0  0  0  0  0  0  0  0  0  0  0
   27.5700    6.7980  -10.2450 C   0  0  0  0  0  0  0  0  0  0  0  0
   28.0160    7.2470   -8.9920 O   0  0  0  0  0  0  0  0  0  0  0  0
   24.2300   12.9130   -5.6980 C   0  0  1  0  0  0  0  0  0  0  0  0
   24.8800    6.4780   -5.8100 C   0  0  1  0  0  0  0  0  0  0  0  0
   25.5024   10.8396   -7.3573 H   0  0  0  0  0  0  0  0  0  0  0  0
   27.4330    8.4832   -6.6038 H   0  0  0  0  0  0  0  0  0  0  0  0
   23.4628   12.2038   -7.5890 H   0  0  0  0  0  0  0  0  0  0  0  0
   22.2913   12.1400   -6.1942 H   0  0  0  0  0  0  0  0  0  0  0  0
   24.6199    7.6591   -8.9707 H   0  0  0  0  0  0  0  0  0  0  0  0
   28.2282    6.3958  -11.0292 H   0  0  0  0  0  0  0  0  0  0  0  0
   24.0607   12.7366   -4.6255 H   0  0  0  0  0  0  0  0  0  0  0  0
   25.2845   12.7147   -5.9402 H   0  0  0  0  0  0  0  0  0  0  0  0
   23.9884   13.9584   -5.9402 H   0  0  0  0  0  0  0  0  0  0  0  0
   24.9512    6.2462   -4.7371 H   0  0  0  0  0  0  0  0  0  0  0  0
   24.1461    5.8081   -6.2820 H   0  0  0  0  0  0  0  0  0  0  0  0
   25.8633    6.3354   -6.2820 H   0  0  0  0  0  0  0  0  0  0  0  0
  1  2  2  0
  1  4  1  0
  2  3  1  0
  2  7  1  0
  4  9  1  0
  4  5  1  0
  5  6  1  0
  5  8  2  0
  6  7  2  0
  7 16  1  0
  3 10  1  0
 10 11  2  0
 10 14  1  0
 11 12  1  0
 12 13  2  0
 13 14  1  0
  9 15  1  0
  1 17  1  0
  3 18  1  0
  9 19  1  6
  9 20  1  0
 11 21  1  0
 13 22  1  0
 15 23  1  1
 15 24  1  0
 15 25  1  0
 16 26  1  1
 16 27  1  0
 16 28  1  0
M  END
>  <Pose ID>  (10)
14

>  <Score>  (10)
-5.414051532745361

>  <smiles>  (10)
CCn1cc(Nc2cnco2)c(C)nc1=O

$$$$

     RDKit          3D

 27 28  0  0  0  0  0  0  0  0999 V2000
   26.5850    9.4660   -6.4100 C   0  0  0  0  0  0  0  0  0  0  0  0
   25.7660    8.3470   -6.3220 C   0  0  0  0  0  0  0  0  0  0  0  0
   25.8180    7.3680   -7.3070 N   0  0  0  0  0  0  0  0  0  0  0  0
   26.7080   10.4930   -5.6180 O   0  0  0  0  0  0  0  0  0  0  0  0
   26.6930    7.5060   -8.3790 C   0  0  0  0  0  0  0  0  0  0  0  0
   27.5090    8.6270   -8.4670 C   0  0  0  0  0  0  0  0  0  0  0  0
   27.4570    9.6080   -7.4820 C   0  0  0  0  0  0  0  0  0  0  0  0
   26.7430    6.6300   -9.2600 O   0  0  0  0  0  0  0  0  0  0  0  0
   25.4870   11.2870   -5.6660 C   0  0  1  0  0  0  0  0  0  0  0  0
   28.4380    8.9910   -9.4100 N   0  0  0  0  0  0  0  0  0  0  0  0
   28.2490    9.5240  -10.6670 C   0  0  0  0  0  0  0  0  0  0  0  0
   29.2490    9.7160  -11.6130 C   0  0  0  0  0  0  0  0  0  0  0  0
   28.9430   10.2910  -12.8400 N   0  0  0  0  0  0  0  0  0  0  0  0
   27.6370   10.6750  -13.1210 C   0  0  0  0  0  0  0  0  0  0  0  0
   26.6370   10.4850  -12.1760 N   0  0  0  0  0  0  0  0  0  0  0  0
   26.9430    9.9090  -10.9480 C   0  0  0  0  0  0  0  0  0  0  0  0
   26.0480    9.7390  -10.1000 O   0  0  0  0  0  0  0  0  0  0  0  0
   25.0762    8.2360   -5.4724 H   0  0  0  0  0  0  0  0  0  0  0  0
   25.2084    6.5402   -7.2430 H   0  0  0  0  0  0  0  0  0  0  0  0
   28.1049   10.4942   -7.5519 H   0  0  0  0  0  0  0  0  0  0  0  0
   25.1511   11.5054   -4.6415 H   0  0  0  0  0  0  0  0  0  0  0  0
   25.6837   12.2304   -6.1963 H   0  0  0  0  0  0  0  0  0  0  0  0
   24.7045   10.7245   -6.1963 H   0  0  0  0  0  0  0  0  0  0  0  0
   29.4206    8.8442   -9.1382 H   0  0  0  0  0  0  0  0  0  0  0  0
   30.2826    9.4127  -11.3901 H   0  0  0  0  0  0  0  0  0  0  0  0
   27.3952   11.1299  -14.0929 H   0  0  0  0  0  0  0  0  0  0  0  0
   25.6696   10.7705  -12.3847 H   0  0  0  0  0  0  0  0  0  0  0  0
  1  7  1  0
  1  2  2  0
  1  4  1  0
  2  3  1  0
  3  5  1  0
  5  8  2  0
  5  6  1  0
  6 10  1  0
  6  7  2  0
  4  9  1  0
 10 11  1  0
 11 12  2  0
 11 16  1  0
 12 13  1  0
 13 14  2  0
 14 15  1  0
 15 16  1  0
 16 17  2  0
  2 18  1  0
  3 19  1  0
  7 20  1  0
  9 21  1  1
  9 22  1  0
  9 23  1  0
 10 24  1  0
 12 25  1  0
 14 26  1  0
 15 27  1  0
M  END
>  <Pose ID>  (11)
9

>  <Score>  (11)
-5.4091339111328125

>  <smiles>  (11)
COc1c[nH]c(=O)c(Nc2cnc[nH]c2=O)c1

$$$$

     RDKit          3D

 22 23  0  0  0  0  0  0  0  0999 V2000
   25.8330   10.0460   -6.1430 C   0  0  0  0  0  0  0  0  0  0  0  0
   25.3020    8.8410   -6.5890 C   0  0  0  0  0  0  0  0  0  0  0  0
   26.1830    7.7660   -7.1860 N   0  0  0  0  0  0  0  0  0  0  0  0
   25.0010   11.0000   -5.5670 N   0  0  0  0  0  0  0  0  0  0  0  0
   23.6380   10.7450   -5.4340 C   0  0  0  0  0  0  0  0  0  0  0  0
   23.1110    9.5410   -5.8790 N   0  0  0  0  0  0  0  0  0  0  0  0
   23.9420    8.5930   -6.4520 C   0  0  0  0  0  0  0  0  0  0  0  0
   22.8950   11.5990   -4.9190 O   0  0  0  0  0  0  0  0  0  0  0  0
   25.6820   12.2280   -5.1160 C   0  0  1  0  0  0  0  0  0  0  0  0
   26.3400    7.6030   -8.4880 C   0  0  0  0  0  0  0  0  0  0  0  0
   25.7270    8.4120   -9.3850 C   0  0  0  0  0  0  0  0  0  0  0  0
   26.2830    7.9790  -10.6640 N   0  0  0  0  0  0  0  0  0  0  0  0
   27.0970    7.0100  -10.5390 C   0  0  0  0  0  0  0  0  0  0  0  0
   27.2390    6.6290   -9.1960 O   0  0  0  0  0  0  0  0  0  0  0  0
   26.9100   10.2446   -6.2456 H   0  0  0  0  0  0  0  0  0  0  0  0
   26.6839    7.1314   -6.5479 H   0  0  0  0  0  0  0  0  0  0  0  0
   23.5227    7.6378   -6.8008 H   0  0  0  0  0  0  0  0  0  0  0  0
   25.6975   12.2559   -4.0165 H   0  0  0  0  0  0  0  0  0  0  0  0
   26.7137   12.2364   -5.4976 H   0  0  0  0  0  0  0  0  0  0  0  0
   25.1428   13.1076   -5.4976 H   0  0  0  0  0  0  0  0  0  0  0  0
   24.9881    9.2045   -9.1955 H   0  0  0  0  0  0  0  0  0  0  0  0
   27.6233    6.5310  -11.3778 H   0  0  0  0  0  0  0  0  0  0  0  0
  1  2  2  0
  1  4  1  0
  2  3  1  0
  2  7  1  0
  4  5  1  0
  4  9  1  0
  5  6  1  0
  5  8  2  0
  6  7  2  0
  3 10  1  0
 10 11  2  0
 10 14  1  0
 11 12  1  0
 12 13  2  0
 13 14  1  0
  1 15  1  0
  3 16  1  0
  7 17  1  0
  9 18  1  1
  9 19  1  0
  9 20  1  0
 11 21  1  0
 13 22  1  0
M  END
>  <Pose ID>  (12)
10

>  <Score>  (12)
-5.192373752593994

>  <smiles>  (12)
Cn1cc(Nc2cnco2)cnc1=O

$$$$

     RDKit          3D

 25 26  0  0  0  0  0  0  0  0999 V2000
   24.9700   10.0780   -6.8430 C   0  0  0  0  0  0  0  0  0  0  0  0
   25.3340    8.7380   -6.7610 C   0  0  0  0  0  0  0  0  0  0  0  0
   26.6650    8.2500   -7.2890 N   0  0  0  0  0  0  0  0  0  0  0  0
   23.7540   10.5000   -6.3170 N   0  0  0  0  0  0  0  0  0  0  0  0
   22.9040    9.5810   -5.7060 C   0  0  0  0  0  0  0  0  0  0  0  0
   23.2700    8.2450   -5.6250 N   0  0  0  0  0  0  0  0  0  0  0  0
   24.4810    7.8280   -6.1490 C   0  0  0  0  0  0  0  0  0  0  0  0
   21.8170    9.9600   -5.2360 O   0  0  0  0  0  0  0  0  0  0  0  0
   23.4890   11.9450   -6.4470 C   0  0  1  0  0  0  0  0  0  0  0  0
   26.8090    7.6990   -8.4810 C   0  0  0  0  0  0  0  0  0  0  0  0
   25.7620    7.5490   -9.3280 C   0  0  0  0  0  0  0  0  0  0  0  0
   26.3860    7.0490  -10.5500 N   0  0  0  0  0  0  0  0  0  0  0  0
   27.6410    6.8900  -10.4270 C   0  0  0  0  0  0  0  0  0  0  0  0
   28.0810    7.2480   -9.1430 O   0  0  0  0  0  0  0  0  0  0  0  0
   24.4040   12.8070   -5.5550 C   0  0  1  0  0  0  0  0  0  0  0  0
   25.6434   10.8031   -7.3234 H   0  0  0  0  0  0  0  0  0  0  0  0
   27.4976    8.3521   -6.6914 H   0  0  0  0  0  0  0  0  0  0  0  0
   24.7702    6.7689   -6.0805 H   0  0  0  0  0  0  0  0  0  0  0  0
   23.6455   12.2372   -7.4959 H   0  0  0  0  0  0  0  0  0  0  0  0
   22.4527   12.1203   -6.1225 H   0  0  0  0  0  0  0  0  0  0  0  0
   24.6978    7.7545   -9.1402 H   0  0  0  0  0  0  0  0  0  0  0  0
   28.2994    6.5186  -11.2261 H   0  0  0  0  0  0  0  0  0  0  0  0
   24.1848   12.6005   -4.4970 H   0  0  0  0  0  0  0  0  0  0  0  0
   25.4559   12.5641   -5.7657 H   0  0  0  0  0  0  0  0  0  0  0  0
   24.2242   13.8716   -5.7657 H   0  0  0  0  0  0  0  0  0  0  0  0
  1  2  2  0
  1  4  1  0
  2  3  1  0
  2  7  1  0
  4  9  1  0
  4  5  1  0
  5  6  1  0
  5  8  2  0
  6  7  2  0
  3 10  1  0
 10 11  2  0
 10 14  1  0
 11 12  1  0
 12 13  2  0
 13 14  1  0
  9 15  1  0
  1 16  1  0
  3 17  1  0
  7 18  1  0
  9 19  1  6
  9 20  1  0
 11 21  1  0
 13 22  1  0
 15 23  1  1
 15 24  1  0
 15 25  1  0
M  END
>  <Pose ID>  (13)
11

>  <Score>  (13)
-5.131301403045654

>  <smiles>  (13)
CCn1cc(Nc2cnco2)cnc1=O

$$$$

     RDKit          3D

 25 26  0  0  0  0  0  0  0  0999 V2000
   25.7290    9.8740   -6.0260 C   0  0  0  0  0  0  0  0  0  0  0  0
   25.1770    8.7280   -6.5870 C   0  0  0  0  0  0  0  0  0  0  0  0
   26.0490    7.6480   -7.1880 N   0  0  0  0  0  0  0  0  0  0  0  0
   24.9020   10.8320   -5.4490 N   0  0  0  0  0  0  0  0  0  0  0  0
   23.5230   10.6400   -5.4310 C   0  0  0  0  0  0  0  0  0  0  0  0
   22.9740    9.4940   -5.9900 N   0  0  0  0  0  0  0  0  0  0  0  0
   23.8010    8.5420   -6.5630 C   0  0  0  0  0  0  0  0  0  0  0  0
   22.7840   11.4970   -4.9150 O   0  0  0  0  0  0  0  0  0  0  0  0
   25.6040   11.9930   -4.8720 C   0  0  1  0  0  0  0  0  0  0  0  0
   26.2940    7.5580   -8.4840 C   0  0  0  0  0  0  0  0  0  0  0  0
   25.7880    8.4520   -9.3670 C   0  0  0  0  0  0  0  0  0  0  0  0
   26.4170    8.0710  -10.6290 N   0  0  0  0  0  0  0  0  0  0  0  0
   27.1730    7.0550  -10.5100 C   0  0  0  0  0  0  0  0  0  0  0  0
   27.1970    6.5850   -9.1880 O   0  0  0  0  0  0  0  0  0  0  0  0
   26.0270   13.1220   -5.8200 C   0  0  1  0  0  0  0  0  0  0  0  0
   26.8188   10.0230   -6.0384 H   0  0  0  0  0  0  0  0  0  0  0  0
   26.4713    6.9506   -6.5586 H   0  0  0  0  0  0  0  0  0  0  0  0
   23.3649    7.6325   -7.0020 H   0  0  0  0  0  0  0  0  0  0  0  0
   24.9395   12.4337   -4.1143 H   0  0  0  0  0  0  0  0  0  0  0  0
   26.5516   11.5815   -4.4943 H   0  0  0  0  0  0  0  0  0  0  0  0
   25.0751    9.2683   -9.1789 H   0  0  0  0  0  0  0  0  0  0  0  0
   27.7368    6.6020  -11.3388 H   0  0  0  0  0  0  0  0  0  0  0  0
   26.3530   13.9922   -5.2314 H   0  0  0  0  0  0  0  0  0  0  0  0
   26.8567   12.7767   -6.4543 H   0  0  0  0  0  0  0  0  0  0  0  0
   25.1746   13.4069   -6.4543 H   0  0  0  0  0  0  0  0  0  0  0  0
  1  2  2  0
  1  4  1  0
  2  3  1  0
  2  7  1  0
  4  5  1  0
  4  9  1  0
  5  6  1  0
  5  8  2  0
  6  7  2  0
  3 10  1  0
 10 11  2  0
 10 14  1  0
 11 12  1  0
 12 13  2  0
 13 14  1  0
  9 15  1  0
  1 16  1  0
  3 17  1  0
  7 18  1  0
  9 19  1  1
  9 20  1  0
 11 21  1  0
 13 22  1  0
 15 23  1  1
 15 24  1  0
 15 25  1  0
M  END
>  <Pose ID>  (14)
12

>  <Score>  (14)
-5.0524468421936035

>  <smiles>  (14)
CCn1cc(Nc2cnco2)cnc1=O

$$$$
