
     RDKit          3D

  3  2  0  0  0  0  0  0  0  0999 V2000
   28.1140    7.7530  -10.4050 C   0  0  0  0  0  0  0  0  0  0  0  0
   27.2090    7.1460   -9.5980 N   0  0  0  0  0  0  0  0  0  0  0  0
   26.1260    7.8680   -9.2090 C   0  0  0  0  0  0  0  0  0  0  0  0
  1  2  1  0
  2  3  2  0
M  END
>  <Pose ID>  (1)
190

>  <Score>  (1)
-11.827856540679932

$$$$

     RDKit          3D

  3  2  0  0  0  0  0  0  0  0999 V2000
   25.9180    8.1000   -8.7130 C   0  0  0  0  0  0  0  0  0  0  0  0
   26.7930    7.0010   -9.1060 N   0  0  0  0  0  0  0  0  0  0  0  0
   27.8150    7.3340  -10.0680 N   0  0  0  0  0  0  0  0  0  0  0  0
  1  2  1  0
  2  3  2  0
M  END
>  <Pose ID>  (2)
199

>  <Score>  (2)
-11.615789890289307

$$$$

     RDKit          3D

  3  2  0  0  0  0  0  0  0  0999 V2000
   17.0710   10.0010   -4.0730 C   0  0  0  0  0  0  0  0  0  0  0  0
   17.3420   10.3300   -5.1940 O   0  0  0  0  0  0  0  0  0  0  0  0
   15.9040    9.8850   -3.7200 O   0  0  0  0  0  0  0  0  0  0  0  0
  1  2  2  0
  1  3  1  0
M  CHG  1   3  -1
M  END
>  <Pose ID>  (3)
97

>  <Score>  (3)
-11.535598993301392

$$$$

     RDKit          3D

  3  2  0  0  0  0  0  0  0  0999 V2000
   26.0480    7.7460   -7.9950 N   0  0  0  0  0  0  0  0  0  0  0  0
   26.6850    7.7330   -9.1890 C   0  0  0  0  0  0  0  0  0  0  0  0
   26.9520    6.6720   -9.7330 O   0  0  0  0  0  0  0  0  0  0  0  0
  1  2  1  0
  2  3  2  0
M  END
>  <Pose ID>  (4)
323

>  <Score>  (4)
-11.522094249725342

$$$$

     RDKit          3D

  3  2  0  0  0  0  0  0  0  0999 V2000
   26.6430    8.5420   -7.5080 C   0  0  0  0  0  0  0  0  0  0  0  0
   26.2130    7.2210   -7.9940 N   0  0  0  0  0  0  0  0  0  0  0  0
   26.8300    7.0460   -9.2860 N   0  0  0  0  0  0  0  0  0  0  0  0
  1  2  1  0
  2  3  1  0
M  END
>  <Pose ID>  (5)
293

>  <Score>  (5)
-11.446228981018066

$$$$

     RDKit          3D

  3  2  0  0  0  0  0  0  0  0999 V2000
   26.8390    8.0090   -9.1250 C   0  0  0  0  0  0  0  0  0  0  0  0
   27.7600    7.4040   -9.9280 N   0  0  0  0  0  0  0  0  0  0  0  0
   26.2180    7.2560   -8.1180 N   0  0  0  0  0  0  0  0  0  0  0  0
  1  2  2  0
  1  3  1  0
M  END
>  <Pose ID>  (6)
312

>  <Score>  (6)
-11.24212384223938

$$$$

     RDKit          3D

  3  2  0  0  0  0  0  0  0  0999 V2000
   29.3520   12.8240  -10.9510 O   0  0  0  0  0  0  0  0  0  0  0  0
   29.5700   12.6870  -12.3890 S   0  0  0  0  0  0  0  0  0  0  0  0
   30.4740   13.5760  -13.1130 O   0  0  0  0  0  0  0  0  0  0  0  0
  1  2  2  0
  2  3  2  0
M  END
>  <Pose ID>  (7)
111

>  <Score>  (7)
-11.1129732131958

$$$$

     RDKit          3D

  3  2  0  0  0  0  0  0  0  0999 V2000
   27.6060    8.2560   -9.5430 C   0  0  0  0  0  0  0  0  0  0  0  0
   26.2120    7.2210   -7.9930 N   0  0  0  0  0  0  0  0  0  0  0  0
   26.8260    7.0460   -9.2880 N   0  0  0  0  0  0  0  0  0  0  0  0
  1  3  2  0
  2  3  1  0
M  END
>  <Pose ID>  (8)
302

>  <Score>  (8)
-11.10217547416687

$$$$

     RDKit          3D

  3  2  0  0  0  0  0  0  0  0999 V2000
   27.7120    8.2190   -9.7030 C   0  0  0  0  0  0  0  0  0  0  0  0
   26.9660    8.7790   -8.6530 C   0  0  0  0  0  0  0  0  0  0  0  0
   26.6870    7.9650   -7.4010 N   0  0  0  0  0  0  0  0  0  0  0  0
  1  2  2  0
  2  3  1  0
M  END
>  <Pose ID>  (9)
82

>  <Score>  (9)
-10.870674848556519

$$$$

     RDKit          3D

  3  2  0  0  0  0  0  0  0  0999 V2000
   25.6290   10.3380   -7.6310 C   0  0  0  0  0  0  0  0  0  0  0  0
   24.4110   10.1510   -6.7070 C   0  0  0  0  0  0  0  0  0  0  0  0
   23.5020   10.9770   -6.7610 O   0  0  0  0  0  0  0  0  0  0  0  0
  1  2  1  0
  2  3  2  0
M  END
>  <Pose ID>  (10)
141

>  <Score>  (10)
-10.793471097946167

$$$$

     RDKit          3D

  3  2  0  0  0  0  0  0  0  0999 V2000
   28.6500   13.0130   -9.9790 C   0  0  0  0  0  0  0  0  0  0  0  0
   27.3980   13.4450   -9.2230 C   0  0  0  0  0  0  0  0  0  0  0  0
   29.6800   13.6760  -10.0260 O   0  0  0  0  0  0  0  0  0  0  0  0
  1  3  2  0
  1  2  1  0
M  END
>  <Pose ID>  (11)
130

>  <Score>  (11)
-10.742114067077637

$$$$

     RDKit          3D

  3  2  0  0  0  0  0  0  0  0999 V2000
   28.6010    9.1560  -11.8030 C   0  0  0  0  0  0  0  0  0  0  0  0
   28.8550    7.8020  -11.2810 N   0  0  0  0  0  0  0  0  0  0  0  0
   27.9560    7.6260  -10.1660 N   0  0  0  0  0  0  0  0  0  0  0  0
  1  2  1  0
  2  3  1  0
M  END
>  <Pose ID>  (12)
294

>  <Score>  (12)
-10.726670026779175

$$$$

     RDKit          3D

  3  2  0  0  0  0  0  0  0  0999 V2000
   26.7700   10.2690   -7.0690 C   0  0  0  0  0  0  0  0  0  0  0  0
   25.6800    9.3940   -7.2030 C   0  0  0  0  0  0  0  0  0  0  0  0
   25.8860    7.8950   -7.0630 N   0  0  0  0  0  0  0  0  0  0  0  0
  1  2  2  0
  2  3  1  0
M  END
>  <Pose ID>  (13)
83

>  <Score>  (13)
-10.696934938430786

$$$$

     RDKit          3D

  3  2  0  0  0  0  0  0  0  0999 V2000
   20.1370   15.0470   -3.6060 C   0  0  0  0  0  0  0  0  0  0  0  0
   21.5940   13.1410   -3.5270 C   0  0  0  0  0  0  0  0  0  0  0  0
   20.5180   13.7990   -4.2830 N   0  0  0  0  0  0  0  0  0  0  0  0
  1  3  1  0
  2  3  1  0
M  CHG  1   3   1
M  END
>  <Pose ID>  (14)
66

>  <Score>  (14)
-10.571542263031006

$$$$

     RDKit          3D

  3  2  0  0  0  0  0  0  0  0999 V2000
   27.8330   17.5930   -8.6060 C   0  0  0  0  0  0  0  0  0  0  0  0
   27.9730   15.3910   -9.5510 C   0  0  0  0  0  0  0  0  0  0  0  0
   28.6900   16.4110   -8.7740 N   0  0  0  0  0  0  0  0  0  0  0  0
  1  3  1  0
  2  3  1  0
M  CHG  1   3   1
M  END
>  <Pose ID>  (15)
1

>  <Score>  (15)
-10.55478549003601

$$$$

     RDKit          3D

  3  2  0  0  0  0  0  0  0  0999 V2000
   26.0730    7.6170   -8.7440 C   0  0  0  0  0  0  0  0  0  0  0  0
   25.6160    9.0000   -8.7390 N   0  0  0  0  0  0  0  0  0  0  0  0
   27.1990    7.0710   -9.4910 N   0  0  0  0  0  0  0  0  0  0  0  0
  1  3  2  0
  1  2  1  0
M  END
>  <Pose ID>  (16)
207

>  <Score>  (16)
-10.531207084655762

$$$$

     RDKit          3D

  3  2  0  0  0  0  0  0  0  0999 V2000
   27.2150   10.1930  -11.1010 C   0  0  0  0  0  0  0  0  0  0  0  0
   26.9800   11.2450  -10.1210 N   0  0  0  0  0  0  0  0  0  0  0  0
   27.0180   12.5930  -10.6350 N   0  0  0  0  0  0  0  0  0  0  0  0
  1  2  1  0
  2  3  2  0
M  END
>  <Pose ID>  (17)
200

>  <Score>  (17)
-10.303932905197144

$$$$

     RDKit          3D

  3  2  0  0  0  0  0  0  0  0999 V2000
   25.9510    7.7100   -8.4460 C   0  0  0  0  0  0  0  0  0  0  0  0
   25.3690    8.3240   -7.3250 C   0  0  0  0  0  0  0  0  0  0  0  0
   24.9240    7.4810   -6.1410 N   0  0  0  0  0  0  0  0  0  0  0  0
  1  2  2  0
  2  3  1  0
M  END
>  <Pose ID>  (18)
84

>  <Score>  (18)
-10.28050446510315

$$$$

     RDKit          3D

  3  2  0  0  0  0  0  0  0  0999 V2000
   26.9750   10.8530  -10.1510 C   0  0  0  0  0  0  0  0  0  0  0  0
   27.5780    9.8340  -10.8810 C   0  0  0  0  0  0  0  0  0  0  0  0
   27.7700    8.6140  -10.3010 O   0  0  0  0  0  0  0  0  0  0  0  0
  1  2  2  0
  2  3  1  0
M  END
>  <Pose ID>  (19)
269

>  <Score>  (19)
-10.207579851150513

$$$$

     RDKit          3D

  3  2  0  0  0  0  0  0  0  0999 V2000
   26.0790    8.0940   -8.9860 C   0  0  0  0  0  0  0  0  0  0  0  0
   27.2920    7.6600   -9.3090 N   0  0  0  0  0  0  0  0  0  0  0  0
   25.7940    9.3250   -9.5880 N   0  0  0  0  0  0  0  0  0  0  0  0
  1  3  1  0
  1  2  2  0
M  END
>  <Pose ID>  (20)
283

>  <Score>  (20)
-10.197750329971313

$$$$

     RDKit          3D

  3  2  0  0  0  0  0  0  0  0999 V2000
   27.9600    8.1790  -10.5140 C   0  0  0  0  0  0  0  0  0  0  0  0
   27.4270    7.1880   -9.7430 N   0  0  0  0  0  0  0  0  0  0  0  0
   29.0640    7.8840  -11.3280 N   0  0  0  0  0  0  0  0  0  0  0  0
  1  3  1  0
  1  2  2  0
M  END
>  <Pose ID>  (21)
313

>  <Score>  (21)
-10.188667058944702

$$$$

     RDKit          3D

  3  2  0  0  0  0  0  0  0  0999 V2000
   28.6900    7.6510  -11.1840 N   0  0  0  0  0  0  0  0  0  0  0  0
   27.8200    8.0290  -10.2420 C   0  0  0  0  0  0  0  0  0  0  0  0
   27.3710    7.3450   -9.3360 O   0  0  0  0  0  0  0  0  0  0  0  0
  1  2  1  0
  2  3  2  0
M  END
>  <Pose ID>  (22)
256

>  <Score>  (22)
-10.187123775482178

$$$$

     RDKit          3D

  3  2  0  0  0  0  0  0  0  0999 V2000
   28.6380    7.6820  -10.9220 N   0  0  0  0  0  0  0  0  0  0  0  0
   27.6390    8.0160  -10.0720 C   0  0  0  0  0  0  0  0  0  0  0  0
   27.2410    7.2130   -9.2420 O   0  0  0  0  0  0  0  0  0  0  0  0
  1  2  1  0
  2  3  2  0
M  END
>  <Pose ID>  (23)
324

>  <Score>  (23)
-10.084089994430542

$$$$

     RDKit          3D

  3  2  0  0  0  0  0  0  0  0999 V2000
   29.3280   10.5750  -12.4600 C   0  0  0  0  0  0  0  0  0  0  0  0
   28.0630   11.1230  -12.6490 C   0  0  0  0  0  0  0  0  0  0  0  0
   26.9580   10.3760  -12.3580 O   0  0  0  0  0  0  0  0  0  0  0  0
  1  2  2  0
  2  3  1  0
M  END
>  <Pose ID>  (24)
270

>  <Score>  (24)
-10.083722114562988

$$$$

     RDKit          3D

  3  2  0  0  0  0  0  0  0  0999 V2000
   27.8700    8.2170   -9.9610 C   0  0  0  0  0  0  0  0  0  0  0  0
   27.0200    7.6220   -9.1300 N   0  0  0  0  0  0  0  0  0  0  0  0
   27.3170    9.3700  -10.5260 N   0  0  0  0  0  0  0  0  0  0  0  0
  1  3  1  0
  1  2  2  0
M  END
>  <Pose ID>  (25)
284

>  <Score>  (25)
-9.993209600448608

$$$$

     RDKit          3D

  3  2  0  0  0  0  0  0  0  0999 V2000
   27.2770    9.4260  -10.4030 C   0  0  0  0  0  0  0  0  0  0  0  0
   28.8780    7.9370  -11.2010 N   0  0  0  0  0  0  0  0  0  0  0  0
   27.9000    8.1250  -10.1560 N   0  0  0  0  0  0  0  0  0  0  0  0
  1  3  2  0
  2  3  1  0
M  END
>  <Pose ID>  (26)
303

>  <Score>  (26)
-9.985424518585205

$$$$

     RDKit          3D

  3  2  0  0  0  0  0  0  0  0999 V2000
   27.8130    8.0470   -9.9690 C   0  0  0  0  0  0  0  0  0  0  0  0
   27.3810    6.9350   -9.8410 O   0  0  0  0  0  0  0  0  0  0  0  0
   27.5640    8.9130   -9.1400 O   0  0  0  0  0  0  0  0  0  0  0  0
  1  2  2  0
  1  3  1  0
M  CHG  1   3  -1
M  END
>  <Pose ID>  (27)
98

>  <Score>  (27)
-9.963864088058472

$$$$

     RDKit          3D

  3  2  0  0  0  0  0  0  0  0999 V2000
   27.4240    9.2220  -10.3300 C   0  0  0  0  0  0  0  0  0  0  0  0
   27.3860    7.9120   -9.8650 C   0  0  0  0  0  0  0  0  0  0  0  0
   28.1730    6.9670  -10.4560 O   0  0  0  0  0  0  0  0  0  0  0  0
  1  2  2  0
  2  3  1  0
M  END
>  <Pose ID>  (28)
271

>  <Score>  (28)
-9.926979780197144

$$$$

     RDKit          3D

  3  2  0  0  0  0  0  0  0  0999 V2000
   27.7940    9.2140  -10.6730 C   0  0  0  0  0  0  0  0  0  0  0  0
   27.2520    8.1430   -9.8500 C   0  0  0  0  0  0  0  0  0  0  0  0
   27.6360    6.9500   -9.9730 O   0  0  0  0  0  0  0  0  0  0  0  0
  1  2  1  0
  2  3  2  0
M  END
>  <Pose ID>  (29)
178

>  <Score>  (29)
-9.909348011016846

$$$$

     RDKit          3D

  3  2  0  0  0  0  0  0  0  0999 V2000
   30.0280   11.0480  -12.6730 C   0  0  0  0  0  0  0  0  0  0  0  0
   29.7720   12.3120  -13.1920 C   0  0  0  0  0  0  0  0  0  0  0  0
   30.8140   13.1320  -13.5090 O   0  0  0  0  0  0  0  0  0  0  0  0
  1  2  2  0
  2  3  1  0
M  END
>  <Pose ID>  (30)
272

>  <Score>  (30)
-9.832414865493774

$$$$

     RDKit          3D

  3  2  0  0  0  0  0  0  0  0999 V2000
   25.6120    8.5150   -7.4750 C   0  0  0  0  0  0  0  0  0  0  0  0
   26.4310    7.4600   -9.2520 C   0  0  0  0  0  0  0  0  0  0  0  0
   26.1420    7.3150   -7.8970 N   0  0  0  0  0  0  0  0  0  0  0  0
  1  3  1  0
  2  3  1  0
M  END
>  <Pose ID>  (31)
71

>  <Score>  (31)
-9.726734399795532

$$$$

     RDKit          3D

  3  2  0  0  0  0  0  0  0  0999 V2000
   25.2580    5.4980    0.3860 C   0  0  0  0  0  0  0  0  0  0  0  0
   23.9810    6.0770   -0.2520 C   0  0  0  0  0  0  0  0  0  0  0  0
   25.2650    4.0370    0.2240 N   0  0  0  0  0  0  0  0  0  0  0  0
  3  1  1  0
  1  2  1  0
M  CHG  1   3   1
M  END
>  <Pose ID>  (32)
12

>  <Score>  (32)
-9.695358514785767

$$$$

     RDKit          3D

  3  2  0  0  0  0  0  0  0  0999 V2000
   28.4350   15.3010   -9.9530 C   0  0  0  0  0  0  0  0  0  0  0  0
   29.0300   13.9180   -9.6260 C   0  0  0  0  0  0  0  0  0  0  0  0
   28.6250   16.2020   -8.8070 N   0  0  0  0  0  0  0  0  0  0  0  0
  3  1  1  0
  1  2  1  0
M  CHG  1   3   1
M  END
>  <Pose ID>  (33)
13

>  <Score>  (33)
-9.685925483703613

$$$$

     RDKit          3D

  3  2  0  0  0  0  0  0  0  0999 V2000
   29.9840   12.4080  -13.1030 C   0  0  0  0  0  0  0  0  0  0  0  0
   28.5040   12.7020  -13.3250 C   0  0  0  0  0  0  0  0  0  0  0  0
   30.8910   13.0670  -13.5970 O   0  0  0  0  0  0  0  0  0  0  0  0
  1  3  2  0
  1  2  1  0
M  END
>  <Pose ID>  (34)
131

>  <Score>  (34)
-9.669480562210083

$$$$

     RDKit          3D

  3  2  0  0  0  0  0  0  0  0999 V2000
   28.1220    8.1680  -10.4700 C   0  0  0  0  0  0  0  0  0  0  0  0
   27.5840   10.1590  -11.3000 C   0  0  0  0  0  0  0  0  0  0  0  0
   27.2780    9.2440  -10.2960 N   0  0  0  0  0  0  0  0  0  0  0  0
  1  3  1  0
  2  3  1  0
M  END
>  <Pose ID>  (35)
72

>  <Score>  (35)
-9.648775339126587

$$$$

     RDKit          3D

  3  2  0  0  0  0  0  0  0  0999 V2000
   30.1370   12.7940  -13.3370 C   0  0  0  0  0  0  0  0  0  0  0  0
   31.2740   12.8390  -13.7180 O   0  0  0  0  0  0  0  0  0  0  0  0
   29.4290   13.7920  -13.3650 O   0  0  0  0  0  0  0  0  0  0  0  0
  1  2  2  0
  1  3  1  0
M  CHG  1   3  -1
M  END
>  <Pose ID>  (36)
99

>  <Score>  (36)
-9.616669178009033

$$$$

     RDKit          3D

  3  2  0  0  0  0  0  0  0  0999 V2000
   27.4260    8.9920   -7.7690 C   0  0  0  0  0  0  0  0  0  0  0  0
   26.4730    9.6230   -9.7400 C   0  0  0  0  0  0  0  0  0  0  0  0
   27.3100   10.1000   -8.6750 O   0  0  0  0  0  0  0  0  0  0  0  0
  1  3  1  0
  2  3  1  0
M  END
>  <Pose ID>  (37)
152

>  <Score>  (37)
-9.580036401748657

$$$$

     RDKit          3D

  3  2  0  0  0  0  0  0  0  0999 V2000
   29.6040   13.4440  -12.7560 C   0  0  0  0  0  0  0  0  0  0  0  0
   29.6930   11.9440  -12.4450 C   0  0  0  0  0  0  0  0  0  0  0  0
   30.3820   14.2470  -11.8650 O   0  0  0  0  0  0  0  0  0  0  0  0
  1  2  1  0
  1  3  1  0
M  END
>  <Pose ID>  (38)
242

>  <Score>  (38)
-9.577558517456055

$$$$

     RDKit          3D

  3  2  0  0  0  0  0  0  0  0999 V2000
   28.9530    8.5630  -11.6950 C   0  0  0  0  0  0  0  0  0  0  0  0
   28.3260    7.9310  -10.5420 N   0  0  0  0  0  0  0  0  0  0  0  0
   27.2300    8.6600   -9.9510 N   0  0  0  0  0  0  0  0  0  0  0  0
  1  2  1  0
  2  3  2  0
M  END
>  <Pose ID>  (39)
201

>  <Score>  (39)
-9.551555156707764

$$$$

     RDKit          3D

  3  2  0  0  0  0  0  0  0  0999 V2000
   27.2550    8.8340   -9.8540 C   0  0  0  0  0  0  0  0  0  0  0  0
   26.8480   10.1630  -10.2900 N   0  0  0  0  0  0  0  0  0  0  0  0
   28.2490    7.9740  -10.4850 N   0  0  0  0  0  0  0  0  0  0  0  0
  1  3  2  0
  1  2  1  0
M  END
>  <Pose ID>  (40)
208

>  <Score>  (40)
-9.513484716415405

$$$$

     RDKit          3D

  3  2  0  0  0  0  0  0  0  0999 V2000
   27.2310   11.9110  -11.9050 C   0  0  0  0  0  0  0  0  0  0  0  0
   27.6180    9.8230  -11.0780 C   0  0  0  0  0  0  0  0  0  0  0  0
   26.8630   11.0210  -10.8400 O   0  0  0  0  0  0  0  0  0  0  0  0
  1  3  1  0
  2  3  1  0
M  END
>  <Pose ID>  (41)
153

>  <Score>  (41)
-9.49880599975586

$$$$

     RDKit          3D

  3  2  0  0  0  0  0  0  0  0999 V2000
   29.4960   11.6520  -12.2230 C   0  0  0  0  0  0  0  0  0  0  0  0
   30.1900   12.7370  -13.0670 C   0  0  0  0  0  0  0  0  0  0  0  0
   31.4190   12.7780  -13.0740 O   0  0  0  0  0  0  0  0  0  0  0  0
  1  2  1  0
  2  3  2  0
M  END
>  <Pose ID>  (42)
142

>  <Score>  (42)
-9.449815273284912

$$$$

     RDKit          3D

  3  2  0  0  0  0  0  0  0  0999 V2000
   27.7470   17.9350   -9.4400 C   0  0  0  0  0  0  0  0  0  0  0  0
   29.0220   19.7010  -10.4500 C   0  0  0  0  0  0  0  0  0  0  0  0
   28.6290   18.2880  -10.5620 N   0  0  0  0  0  0  0  0  0  0  0  0
  1  3  1  0
  2  3  1  0
M  CHG  1   3   1
M  END
>  <Pose ID>  (43)
2

>  <Score>  (43)
-9.286246299743652

$$$$

     RDKit          3D

  3  2  0  0  0  0  0  0  0  0999 V2000
   28.3480   12.7170  -10.7110 C   0  0  0  0  0  0  0  0  0  0  0  0
   27.4420   12.1380  -11.6940 N   0  0  0  0  0  0  0  0  0  0  0  0
   29.5640   13.4720  -10.9810 N   0  0  0  0  0  0  0  0  0  0  0  0
  1  2  1  0
  1  3  2  0
M  END
>  <Pose ID>  (44)
209

>  <Score>  (44)
-9.245553970336914

$$$$

     RDKit          3D

  3  2  0  0  0  0  0  0  0  0999 V2000
   25.5160    9.4150   -8.6960 N   0  0  0  0  0  0  0  0  0  0  0  0
   26.1560   10.3030   -9.4910 C   0  0  0  0  0  0  0  0  0  0  0  0
   25.7650   11.4590   -9.5640 O   0  0  0  0  0  0  0  0  0  0  0  0
  1  2  1  0
  2  3  2  0
M  END
>  <Pose ID>  (45)
325

>  <Score>  (45)
-9.242280960083008

$$$$

     RDKit          3D

  3  2  0  0  0  0  0  0  0  0999 V2000
   24.3040    7.1680   -5.5340 C   0  0  0  0  0  0  0  0  0  0  0  0
   25.2310    7.4800   -6.6980 N   0  0  0  0  0  0  0  0  0  0  0  0
   24.5510    6.0760   -4.7290 N   0  0  0  0  0  0  0  0  0  0  0  0
  1  2  1  0
  1  3  1  0
M  END
>  <Pose ID>  (46)
37

>  <Score>  (46)
-9.193982601165771

$$$$

     RDKit          3D

  3  2  0  0  0  0  0  0  0  0999 V2000
   23.9250    7.1930   -5.5180 C   0  0  0  0  0  0  0  0  0  0  0  0
   22.4770    7.4420   -5.4470 N   0  0  0  0  0  0  0  0  0  0  0  0
   24.5440    6.0690   -4.7020 N   0  0  0  0  0  0  0  0  0  0  0  0
  1  2  2  0
  1  3  1  0
M  CHG  1   2   1
M  END
>  <Pose ID>  (47)
26

>  <Score>  (47)
-9.113862752914429

$$$$

     RDKit          3D

  3  2  0  0  0  0  0  0  0  0999 V2000
   27.6900    9.4640  -10.7920 C   0  0  0  0  0  0  0  0  0  0  0  0
   26.5870   10.1450  -10.3930 N   0  0  0  0  0  0  0  0  0  0  0  0
   25.7530    9.5350   -9.5110 C   0  0  0  0  0  0  0  0  0  0  0  0
  1  2  1  0
  2  3  2  0
M  END
>  <Pose ID>  (48)
191

>  <Score>  (48)
-9.041725635528564

$$$$

     RDKit          3D

  3  2  0  0  0  0  0  0  0  0999 V2000
   27.9420    8.2720  -10.4070 C   0  0  0  0  0  0  0  0  0  0  0  0
   28.9070    8.4300  -11.5780 C   0  0  0  0  0  0  0  0  0  0  0  0
   27.6580    7.1930   -9.9010 O   0  0  0  0  0  0  0  0  0  0  0  0
  1  2  1  0
  1  3  2  0
M  END
>  <Pose ID>  (49)
132

>  <Score>  (49)
-8.990759134292603

$$$$

     RDKit          3D

  3  2  0  0  0  0  0  0  0  0999 V2000
   24.7630   15.4810   -4.7440 C   0  0  0  0  0  0  0  0  0  0  0  0
   26.0600   16.2650   -4.4690 C   0  0  0  0  0  0  0  0  0  0  0  0
   25.0410   14.3870   -5.6850 N   0  0  0  0  0  0  0  0  0  0  0  0
  3  1  1  0
  1  2  1  0
M  CHG  1   3   1
M  END
>  <Pose ID>  (50)
14

>  <Score>  (50)
-8.91674816608429

$$$$

     RDKit          3D

  3  2  0  0  0  0  0  0  0  0999 V2000
   29.5180   11.9090  -12.9970 C   0  0  0  0  0  0  0  0  0  0  0  0
   28.0680   11.8770  -12.9970 C   0  0  0  0  0  0  0  0  0  0  0  0
   27.2410   12.7700  -13.2920 O   0  0  0  0  0  0  0  0  0  0  0  0
  1  2  1  0
  2  3  2  0
M  END
>  <Pose ID>  (51)
162

>  <Score>  (51)
-8.905313730239868

$$$$

     RDKit          3D

  3  2  0  0  0  0  0  0  0  0999 V2000
   22.9280   17.3410   -0.9940 C   0  0  0  0  0  0  0  0  0  0  0  0
   24.1740   17.6240   -0.1450 C   0  0  0  0  0  0  0  0  0  0  0  0
   23.1350   16.3150   -1.9670 O   0  0  0  0  0  0  0  0  0  0  0  0
  1  3  1  0
  1  2  1  0
M  END
>  <Pose ID>  (52)
243

>  <Score>  (52)
-8.905024766921997

$$$$

     RDKit          3D

  3  2  0  0  0  0  0  0  0  0999 V2000
   26.6210    9.1160   -9.5390 C   0  0  0  0  0  0  0  0  0  0  0  0
   27.5450    8.1800  -10.1630 C   0  0  0  0  0  0  0  0  0  0  0  0
   27.5890    6.9660   -9.8310 O   0  0  0  0  0  0  0  0  0  0  0  0
  1  2  1  0
  2  3  2  0
M  END
>  <Pose ID>  (53)
179

>  <Score>  (53)
-8.902815341949463

$$$$

     RDKit          3D

  3  2  0  0  0  0  0  0  0  0999 V2000
   27.4940    8.6560   -8.7860 C   0  0  0  0  0  0  0  0  0  0  0  0
   27.7910    8.6070  -10.1580 C   0  0  0  0  0  0  0  0  0  0  0  0
   28.3320    7.3260  -10.7730 N   0  0  0  0  0  0  0  0  0  0  0  0
  1  2  2  0
  2  3  1  0
M  END
>  <Pose ID>  (54)
85

>  <Score>  (54)
-8.889431953430176

$$$$

     RDKit          3D

  3  2  0  0  0  0  0  0  0  0999 V2000
   25.9800   12.2010   -5.7230 C   0  0  0  0  0  0  0  0  0  0  0  0
   26.2880   14.5730   -5.9370 C   0  0  0  0  0  0  0  0  0  0  0  0
   25.7350   13.5060   -5.0910 N   0  0  0  0  0  0  0  0  0  0  0  0
  1  3  1  0
  2  3  1  0
M  CHG  1   3   1
M  END
>  <Pose ID>  (55)
3

>  <Score>  (55)
-8.876591920852661

$$$$

     RDKit          3D

  3  2  0  0  0  0  0  0  0  0999 V2000
   27.1710    8.5170   -8.0400 C   0  0  0  0  0  0  0  0  0  0  0  0
   27.2870    8.0830   -9.4190 C   0  0  0  0  0  0  0  0  0  0  0  0
   27.4580    6.9350   -9.8920 O   0  0  0  0  0  0  0  0  0  0  0  0
  1  2  1  0
  2  3  2  0
M  END
>  <Pose ID>  (56)
163

>  <Score>  (56)
-8.801246285438538

$$$$

     RDKit          3D

  3  2  0  0  0  0  0  0  0  0999 V2000
   27.7350    8.4880  -10.2870 C   0  0  0  0  0  0  0  0  0  0  0  0
   28.6760    7.7500  -10.9760 N   0  0  0  0  0  0  0  0  0  0  0  0
   27.5280    9.9560  -10.6210 N   0  0  0  0  0  0  0  0  0  0  0  0
  1  2  1  0
  1  3  1  0
M  END
>  <Pose ID>  (57)
38

>  <Score>  (57)
-8.721592783927917

$$$$

     RDKit          3D

  3  2  0  0  0  0  0  0  0  0999 V2000
   26.1930   18.2500  -14.2310 C   0  0  0  0  0  0  0  0  0  0  0  0
   27.2070   18.1550  -14.8640 O   0  0  0  0  0  0  0  0  0  0  0  0
   25.6470   19.3360  -14.0850 O   0  0  0  0  0  0  0  0  0  0  0  0
  1  2  2  0
  1  3  1  0
M  CHG  1   3  -1
M  END
>  <Pose ID>  (58)
100

>  <Score>  (58)
-8.713557481765747

$$$$

     RDKit          3D

  3  2  0  0  0  0  0  0  0  0999 V2000
   27.8970   11.7200  -12.9190 C   0  0  0  0  0  0  0  0  0  0  0  0
   29.4100   11.8570  -13.0630 C   0  0  0  0  0  0  0  0  0  0  0  0
   27.1140   12.6520  -13.0510 O   0  0  0  0  0  0  0  0  0  0  0  0
  1  2  1  0
  1  3  2  0
M  END
>  <Pose ID>  (59)
133

>  <Score>  (59)
-8.70193862915039

$$$$

     RDKit          3D

  3  2  0  0  0  0  0  0  0  0999 V2000
   27.2040   12.2330  -11.9360 C   0  0  0  0  0  0  0  0  0  0  0  0
   26.7470   11.9420  -10.6920 N   0  0  0  0  0  0  0  0  0  0  0  0
   26.9650   10.6880  -10.2170 C   0  0  0  0  0  0  0  0  0  0  0  0
  1  2  1  0
  2  3  2  0
M  END
>  <Pose ID>  (60)
192

>  <Score>  (60)
-8.648803949356079

$$$$

     RDKit          3D

  3  2  0  0  0  0  0  0  0  0999 V2000
   28.0870    8.0690  -10.4620 C   0  0  0  0  0  0  0  0  0  0  0  0
   27.3210    7.1680   -9.6110 N   0  0  0  0  0  0  0  0  0  0  0  0
   27.7820    9.4630  -10.7570 N   0  0  0  0  0  0  0  0  0  0  0  0
  1  3  2  0
  1  2  1  0
M  END
>  <Pose ID>  (61)
210

>  <Score>  (61)
-8.618600964546204

$$$$

     RDKit          3D

  3  2  0  0  0  0  0  0  0  0999 V2000
   25.6170    9.8300   -9.0060 C   0  0  0  0  0  0  0  0  0  0  0  0
   26.5180   10.2220  -10.0810 N   0  0  0  0  0  0  0  0  0  0  0  0
   25.6180    8.5660   -8.2820 N   0  0  0  0  0  0  0  0  0  0  0  0
  1  2  1  0
  1  3  2  0
M  END
>  <Pose ID>  (62)
211

>  <Score>  (62)
-8.598202586174011

$$$$

     RDKit          3D

  3  2  0  0  0  0  0  0  0  0999 V2000
   27.8360    9.8810  -11.3400 C   0  0  0  0  0  0  0  0  0  0  0  0
   27.5900   11.1670  -10.8290 C   0  0  0  0  0  0  0  0  0  0  0  0
   26.4200   11.4010   -9.8880 N   0  0  0  0  0  0  0  0  0  0  0  0
  1  2  2  0
  2  3  1  0
M  END
>  <Pose ID>  (63)
86

>  <Score>  (63)
-8.558846592903137

$$$$

     RDKit          3D

  3  2  0  0  0  0  0  0  0  0999 V2000
   29.1420   13.8820  -10.4440 C   0  0  0  0  0  0  0  0  0  0  0  0
   30.0570   14.8610  -10.7690 N   0  0  0  0  0  0  0  0  0  0  0  0
   28.3800   13.9610   -9.1300 N   0  0  0  0  0  0  0  0  0  0  0  0
  1  2  1  0
  1  3  1  0
M  END
>  <Pose ID>  (64)
39

>  <Score>  (64)
-8.550954103469849

$$$$

     RDKit          3D

  3  2  0  0  0  0  0  0  0  0999 V2000
   27.3020   12.6710  -11.9030 C   0  0  0  0  0  0  0  0  0  0  0  0
   27.4850   11.7950  -10.7620 C   0  0  0  0  0  0  0  0  0  0  0  0
   27.6800   12.0710   -9.5560 O   0  0  0  0  0  0  0  0  0  0  0  0
  1  2  1  0
  2  3  2  0
M  END
>  <Pose ID>  (65)
164

>  <Score>  (65)
-8.475261449813843

$$$$

     RDKit          3D

  3  2  0  0  0  0  0  0  0  0999 V2000
   29.8090   11.8970  -13.0500 C   0  0  0  0  0  0  0  0  0  0  0  0
   29.9280   10.5440  -12.5250 N   0  0  0  0  0  0  0  0  0  0  0  0
   28.5760   12.6320  -13.3010 N   0  0  0  0  0  0  0  0  0  0  0  0
  1  3  2  0
  1  2  1  0
M  END
>  <Pose ID>  (66)
212

>  <Score>  (66)
-8.46009087562561

$$$$

     RDKit          3D

  3  2  0  0  0  0  0  0  0  0999 V2000
   21.9350    7.2500   -4.6870 C   0  0  0  0  0  0  0  0  0  0  0  0
   21.4860    8.5790   -5.3260 C   0  0  0  0  0  0  0  0  0  0  0  0
   20.3250    8.6760   -5.7190 O   0  0  0  0  0  0  0  0  0  0  0  0
  1  2  1  0
  2  3  2  0
M  END
>  <Pose ID>  (67)
143

>  <Score>  (67)
-8.385947465896606

$$$$

     RDKit          3D

  3  2  0  0  0  0  0  0  0  0999 V2000
   27.9170   10.0140  -12.2460 C   0  0  0  0  0  0  0  0  0  0  0  0
   27.3060   11.2580  -12.6970 N   0  0  0  0  0  0  0  0  0  0  0  0
   28.2250   12.2840  -13.1230 N   0  0  0  0  0  0  0  0  0  0  0  0
  1  2  1  0
  2  3  2  0
M  END
>  <Pose ID>  (68)
202

>  <Score>  (68)
-8.3075532913208

$$$$

     RDKit          3D

  3  2  0  0  0  0  0  0  0  0999 V2000
   25.9880    9.4150   -9.6620 C   0  0  0  0  0  0  0  0  0  0  0  0
   27.8660    8.3680  -10.2270 C   0  0  0  0  0  0  0  0  0  0  0  0
   27.1490    9.5510  -10.3920 N   0  0  0  0  0  0  0  0  0  0  0  0
  1  3  1  0
  2  3  1  0
M  END
>  <Pose ID>  (69)
73

>  <Score>  (69)
-8.30116057395935

$$$$

     RDKit          3D

  3  2  0  0  0  0  0  0  0  0999 V2000
   27.4980    9.8730  -10.8900 C   0  0  0  0  0  0  0  0  0  0  0  0
   27.0490   12.0060  -11.7040 N   0  0  0  0  0  0  0  0  0  0  0  0
   26.8150   11.1290  -10.5820 N   0  0  0  0  0  0  0  0  0  0  0  0
  1  3  2  0
  2  3  1  0
M  END
>  <Pose ID>  (70)
304

>  <Score>  (70)
-8.28585946559906

$$$$

     RDKit          3D

  3  2  0  0  0  0  0  0  0  0999 V2000
   27.0890    9.7730   -9.4270 C   0  0  0  0  0  0  0  0  0  0  0  0
   27.2450   10.5980  -10.5540 C   0  0  0  0  0  0  0  0  0  0  0  0
   26.6550   12.0000  -10.5560 N   0  0  0  0  0  0  0  0  0  0  0  0
  1  2  2  0
  2  3  1  0
M  END
>  <Pose ID>  (71)
87

>  <Score>  (71)
-8.226513504981995

$$$$

     RDKit          3D

  3  2  0  0  0  0  0  0  0  0999 V2000
   26.4120    9.5020   -9.9170 C   0  0  0  0  0  0  0  0  0  0  0  0
   26.9690   10.3540  -11.0460 N   0  0  0  0  0  0  0  0  0  0  0  0
   25.2820    9.9120   -9.2370 N   0  0  0  0  0  0  0  0  0  0  0  0
  1  2  1  0
  1  3  1  0
M  END
>  <Pose ID>  (72)
40

>  <Score>  (72)
-8.219796180725098

$$$$

     RDKit          3D

  3  2  0  0  0  0  0  0  0  0999 V2000
   27.6840   10.1570  -12.2980 C   0  0  0  0  0  0  0  0  0  0  0  0
   28.9490    9.5710  -12.1280 C   0  0  0  0  0  0  0  0  0  0  0  0
   29.0630    8.1460  -11.6090 N   0  0  0  0  0  0  0  0  0  0  0  0
  1  2  2  0
  2  3  1  0
M  END
>  <Pose ID>  (73)
88

>  <Score>  (73)
-8.202005505561829

$$$$

     RDKit          3D

  3  2  0  0  0  0  0  0  0  0999 V2000
   26.9590    8.9990   -9.0060 C   0  0  0  0  0  0  0  0  0  0  0  0
   27.4140    9.3570   -7.9450 O   0  0  0  0  0  0  0  0  0  0  0  0
   25.6600    9.5080   -9.4700 N   0  0  0  0  0  0  0  0  0  0  0  0
  1  3  1  0
  1  2  2  0
M  END
>  <Pose ID>  (74)
215

>  <Score>  (74)
-8.198801875114441

$$$$

     RDKit          3D

  3  2  0  0  0  0  0  0  0  0999 V2000
   25.3830    8.0880   -7.0750 C   0  0  0  0  0  0  0  0  0  0  0  0
   25.8250    9.3360   -6.9530 N   0  0  0  0  0  0  0  0  0  0  0  0
   26.1510    7.3550   -7.9850 N   0  0  0  0  0  0  0  0  0  0  0  0
  1  3  1  0
  1  2  2  0
M  END
>  <Pose ID>  (75)
285

>  <Score>  (75)
-8.195741534233093

$$$$

     RDKit          3D

  3  2  0  0  0  0  0  0  0  0999 V2000
   24.6430    7.2930   -2.0600 O   0  0  0  0  0  0  0  0  0  0  0  0
   23.4810    8.1750   -2.1140 S   0  0  0  0  0  0  0  0  0  0  0  0
   23.1130    9.0250   -0.9850 O   0  0  0  0  0  0  0  0  0  0  0  0
  1  2  2  0
  2  3  2  0
M  END
>  <Pose ID>  (76)
112

>  <Score>  (76)
-8.174429655075073

$$$$

     RDKit          3D

  3  2  0  0  0  0  0  0  0  0999 V2000
   24.8650   15.1290   -8.8800 C   0  0  0  0  0  0  0  0  0  0  0  0
   25.0070   13.6050   -8.9910 C   0  0  0  0  0  0  0  0  0  0  0  0
   23.7250   15.6370   -9.5770 O   0  0  0  0  0  0  0  0  0  0  0  0
  1  3  1  0
  1  2  1  0
M  END
>  <Pose ID>  (77)
244

>  <Score>  (77)
-8.162086009979248

$$$$

     RDKit          3D

  3  2  0  0  0  0  0  0  0  0999 V2000
   28.3870   10.3740  -11.7670 C   0  0  0  0  0  0  0  0  0  0  0  0
   28.6400   11.6110  -12.4940 C   0  0  0  0  0  0  0  0  0  0  0  0
   29.6000   11.7240  -13.3020 O   0  0  0  0  0  0  0  0  0  0  0  0
  1  2  1  0
  2  3  2  0
M  END
>  <Pose ID>  (78)
180

>  <Score>  (78)
-8.147077202796936

$$$$

     RDKit          3D

  3  2  0  0  0  0  0  0  0  0999 V2000
   27.8940   11.6220  -11.4990 N   0  0  0  0  0  0  0  0  0  0  0  0
   27.6690   10.2920  -11.3900 C   0  0  0  0  0  0  0  0  0  0  0  0
   26.6400    9.8800  -10.8760 O   0  0  0  0  0  0  0  0  0  0  0  0
  1  2  1  0
  2  3  2  0
M  END
>  <Pose ID>  (79)
326

>  <Score>  (79)
-8.108913898468018

$$$$

     RDKit          3D

  3  2  0  0  0  0  0  0  0  0999 V2000
   27.3610   10.2960  -11.6140 C   0  0  0  0  0  0  0  0  0  0  0  0
   26.7440   12.2270  -10.5710 C   0  0  0  0  0  0  0  0  0  0  0  0
   27.0630   11.6800  -11.8600 O   0  0  0  0  0  0  0  0  0  0  0  0
  1  3  1  0
  2  3  1  0
M  END
>  <Pose ID>  (80)
154

>  <Score>  (80)
-8.078406572341919

$$$$

     RDKit          3D

  3  2  0  0  0  0  0  0  0  0999 V2000
   27.3280   10.5590  -10.3320 C   0  0  0  0  0  0  0  0  0  0  0  0
   27.6710    9.3400  -10.8240 N   0  0  0  0  0  0  0  0  0  0  0  0
   27.7160    8.2990   -9.9550 C   0  0  0  0  0  0  0  0  0  0  0  0
  3  2  2  0
  2  1  1  0
M  END
>  <Pose ID>  (81)
193

>  <Score>  (81)
-8.026933789253235

$$$$

     RDKit          3D

  3  2  0  0  0  0  0  0  0  0999 V2000
   26.1070    7.6950   -9.0040 C   0  0  0  0  0  0  0  0  0  0  0  0
   28.0050    8.1760  -10.1700 C   0  0  0  0  0  0  0  0  0  0  0  0
   27.3320    7.1130   -9.4780 O   0  0  0  0  0  0  0  0  0  0  0  0
  1  3  1  0
  2  3  1  0
M  END
>  <Pose ID>  (82)
155

>  <Score>  (82)
-7.931313008069992

$$$$

     RDKit          3D

  3  2  0  0  0  0  0  0  0  0999 V2000
   27.1700   11.0450  -10.6690 C   0  0  0  0  0  0  0  0  0  0  0  0
   27.1090   10.2820   -9.4300 C   0  0  0  0  0  0  0  0  0  0  0  0
   27.0320   10.8430   -8.3040 O   0  0  0  0  0  0  0  0  0  0  0  0
  1  2  1  0
  2  3  2  0
M  END
>  <Pose ID>  (83)
181

>  <Score>  (83)
-7.930564880371094

$$$$

     RDKit          3D

  3  2  0  0  0  0  0  0  0  0999 V2000
   29.7240   12.0990  -13.0870 C   0  0  0  0  0  0  0  0  0  0  0  0
   28.4130   12.4390  -13.1720 N   0  0  0  0  0  0  0  0  0  0  0  0
   27.4950   11.5090  -12.8010 C   0  0  0  0  0  0  0  0  0  0  0  0
  1  2  1  0
  2  3  2  0
M  END
>  <Pose ID>  (84)
194

>  <Score>  (84)
-7.832311153411865

$$$$

     RDKit          3D

  3  2  0  0  0  0  0  0  0  0999 V2000
   27.3180    9.4700  -10.0300 C   0  0  0  0  0  0  0  0  0  0  0  0
   26.9280   10.7600   -9.6360 C   0  0  0  0  0  0  0  0  0  0  0  0
   26.7380   11.8480  -10.6790 N   0  0  0  0  0  0  0  0  0  0  0  0
  1  2  2  0
  2  3  1  0
M  END
>  <Pose ID>  (85)
89

>  <Score>  (85)
-7.788631558418274

$$$$

     RDKit          3D

  3  2  0  0  0  0  0  0  0  0999 V2000
   27.4850   11.2000  -10.9200 C   0  0  0  0  0  0  0  0  0  0  0  0
   26.7170   12.3230  -10.4000 C   0  0  0  0  0  0  0  0  0  0  0  0
   26.8810   13.4970  -10.8270 O   0  0  0  0  0  0  0  0  0  0  0  0
  1  2  1  0
  2  3  2  0
M  END
>  <Pose ID>  (86)
182

>  <Score>  (86)
-7.774771213531494

$$$$

     RDKit          3D

  3  2  0  0  0  0  0  0  0  0999 V2000
   26.8840   10.0000  -10.6480 C   0  0  0  0  0  0  0  0  0  0  0  0
   27.1100   11.3340  -10.7730 N   0  0  0  0  0  0  0  0  0  0  0  0
   26.3730   12.1730  -10.0030 C   0  0  0  0  0  0  0  0  0  0  0  0
  3  2  2  0
  2  1  1  0
M  END
>  <Pose ID>  (87)
195

>  <Score>  (87)
-7.7679877281188965

$$$$

     RDKit          3D

  3  2  0  0  0  0  0  0  0  0999 V2000
   29.7270   12.0850  -13.0580 C   0  0  0  0  0  0  0  0  0  0  0  0
   29.7490   10.8250  -12.5560 N   0  0  0  0  0  0  0  0  0  0  0  0
   28.5560   10.2060  -12.3520 C   0  0  0  0  0  0  0  0  0  0  0  0
  1  2  1  0
  2  3  2  0
M  END
>  <Pose ID>  (88)
196

>  <Score>  (88)
-7.7662293910980225

$$$$

     RDKit          3D

  3  2  0  0  0  0  0  0  0  0999 V2000
   28.7820    9.5930  -12.1360 C   0  0  0  0  0  0  0  0  0  0  0  0
   27.7240    9.9740  -11.1850 N   0  0  0  0  0  0  0  0  0  0  0  0
   27.8360   11.4030  -11.0100 N   0  0  0  0  0  0  0  0  0  0  0  0
  1  2  1  0
  2  3  1  0
M  END
>  <Pose ID>  (89)
295

>  <Score>  (89)
-7.752984285354614

$$$$

     RDKit          3D

  3  2  0  0  0  0  0  0  0  0999 V2000
   24.0400    6.2230   -0.6440 C   0  0  0  0  0  0  0  0  0  0  0  0
   23.4850    7.2350   -0.2860 O   0  0  0  0  0  0  0  0  0  0  0  0
   23.7350    5.6290   -1.9530 N   0  0  0  0  0  0  0  0  0  0  0  0
  1  3  1  0
  1  2  2  0
M  END
>  <Pose ID>  (90)
216

>  <Score>  (90)
-7.749942863360047

$$$$

     RDKit          3D

  3  2  0  0  0  0  0  0  0  0999 V2000
   23.3460    9.8070   -4.1450 C   0  0  0  0  0  0  0  0  0  0  0  0
   23.6530    8.5170   -3.3710 C   0  0  0  0  0  0  0  0  0  0  0  0
   24.5030   10.6180   -4.3590 O   0  0  0  0  0  0  0  0  0  0  0  0
  1  3  1  0
  1  2  1  0
M  END
>  <Pose ID>  (91)
245

>  <Score>  (91)
-7.72334349155426

$$$$

     RDKit          3D

  3  2  0  0  0  0  0  0  0  0999 V2000
   28.6560   12.7030  -13.3440 N   0  0  0  0  0  0  0  0  0  0  0  0
   29.9460   12.3200  -13.2100 C   0  0  0  0  0  0  0  0  0  0  0  0
   30.8510   13.0700  -13.5420 O   0  0  0  0  0  0  0  0  0  0  0  0
  1  2  1  0
  2  3  2  0
M  END
>  <Pose ID>  (92)
327

>  <Score>  (92)
-7.711946725845337

$$$$

     RDKit          3D

  3  2  0  0  0  0  0  0  0  0999 V2000
   25.2970   12.6120   -5.7500 C   0  0  0  0  0  0  0  0  0  0  0  0
   26.6080   11.9890   -6.2680 C   0  0  0  0  0  0  0  0  0  0  0  0
   25.6000   13.8430   -5.0070 N   0  0  0  0  0  0  0  0  0  0  0  0
  3  1  1  0
  1  2  1  0
M  CHG  1   3   1
M  END
>  <Pose ID>  (93)
15

>  <Score>  (93)
-7.688191518187523

$$$$

     RDKit          3D

  3  2  0  0  0  0  0  0  0  0999 V2000
   23.9110    6.3630   -0.8580 C   0  0  0  0  0  0  0  0  0  0  0  0
   24.1860    6.9630   -2.2450 C   0  0  0  0  0  0  0  0  0  0  0  0
   23.9590    4.9350   -0.8480 O   0  0  0  0  0  0  0  0  0  0  0  0
  1  2  1  0
  1  3  1  0
M  END
>  <Pose ID>  (94)
246

>  <Score>  (94)
-7.686575643718243

$$$$

     RDKit          3D

  3  2  0  0  0  0  0  0  0  0999 V2000
   27.0200   10.1120  -11.0890 C   0  0  0  0  0  0  0  0  0  0  0  0
   28.8080    8.5810  -11.6160 C   0  0  0  0  0  0  0  0  0  0  0  0
   27.9070    9.0820  -10.6060 O   0  0  0  0  0  0  0  0  0  0  0  0
  1  3  1  0
  2  3  1  0
M  END
>  <Pose ID>  (95)
121

>  <Score>  (95)
-7.65618272125721

$$$$

     RDKit          3D

  3  2  0  0  0  0  0  0  0  0999 V2000
   26.0660    7.4680   -7.7440 N   0  0  0  0  0  0  0  0  0  0  0  0
   26.8120    7.6350   -8.8410 C   0  0  0  0  0  0  0  0  0  0  0  0
   27.0330    6.8110   -9.7150 O   0  0  0  0  0  0  0  0  0  0  0  0
  1  2  1  0
  2  3  2  0
M  END
>  <Pose ID>  (96)
257

>  <Score>  (96)
-7.63436975912191

$$$$

     RDKit          3D

  3  2  0  0  0  0  0  0  0  0999 V2000
   26.7410    9.0420   -9.0540 N   0  0  0  0  0  0  0  0  0  0  0  0
   27.4240    8.2890   -9.9470 C   0  0  0  0  0  0  0  0  0  0  0  0
   27.5250    7.0830   -9.7880 O   0  0  0  0  0  0  0  0  0  0  0  0
  1  2  1  0
  2  3  2  0
M  END
>  <Pose ID>  (97)
328

>  <Score>  (97)
-7.613732576370239

$$$$

     RDKit          3D

  3  2  0  0  0  0  0  0  0  0999 V2000
   27.1040   13.4960   -6.8900 C   0  0  0  0  0  0  0  0  0  0  0  0
   25.7570   12.7530   -6.8090 C   0  0  0  0  0  0  0  0  0  0  0  0
   27.0060   14.5840   -7.8730 N   0  0  0  0  0  0  0  0  0  0  0  0
  3  1  1  0
  1  2  1  0
M  CHG  1   3   1
M  END
>  <Pose ID>  (98)
16

>  <Score>  (98)
-7.603788435459137

$$$$

     RDKit          3D

  3  2  0  0  0  0  0  0  0  0999 V2000
   27.2500   11.4530  -10.4620 C   0  0  0  0  0  0  0  0  0  0  0  0
   27.3870   12.7670  -10.8020 N   0  0  0  0  0  0  0  0  0  0  0  0
   27.2440   11.1010   -9.1050 N   0  0  0  0  0  0  0  0  0  0  0  0
  1  2  2  0
  1  3  1  0
M  END
>  <Pose ID>  (99)
314

>  <Score>  (99)
-7.588587641716003

$$$$

     RDKit          3D

  3  2  0  0  0  0  0  0  0  0999 V2000
   22.9960    9.8500   -1.6010 C   0  0  0  0  0  0  0  0  0  0  0  0
   23.8190    9.0470   -1.9440 O   0  0  0  0  0  0  0  0  0  0  0  0
   23.0940   10.4240   -0.5240 O   0  0  0  0  0  0  0  0  0  0  0  0
  1  2  2  0
  1  3  1  0
M  CHG  1   3  -1
M  END
>  <Pose ID>  (100)
101

>  <Score>  (100)
-7.559235618915409

$$$$

     RDKit          3D

  3  2  0  0  0  0  0  0  0  0999 V2000
   23.8990    6.4160   -3.9300 C   0  0  0  0  0  0  0  0  0  0  0  0
   24.6020    6.3850   -5.1180 N   0  0  0  0  0  0  0  0  0  0  0  0
   23.3060    5.1360   -3.3640 N   0  0  0  0  0  0  0  0  0  0  0  0
  1  2  1  0
  1  3  1  0
M  END
>  <Pose ID>  (101)
41

>  <Score>  (101)
-7.538530820980668

$$$$

     RDKit          3D

  3  2  0  0  0  0  0  0  0  0999 V2000
   28.4200   11.9690  -12.2370 C   0  0  0  0  0  0  0  0  0  0  0  0
   28.2000   13.2970  -11.4870 C   0  0  0  0  0  0  0  0  0  0  0  0
   27.0530   13.6070  -11.1700 O   0  0  0  0  0  0  0  0  0  0  0  0
  1  2  1  0
  2  3  2  0
M  END
>  <Pose ID>  (102)
144

>  <Score>  (102)
-7.50803804397583

$$$$

     RDKit          3D

  3  2  0  0  0  0  0  0  0  0999 V2000
   27.0650    9.7530   -7.0690 O   0  0  0  0  0  0  0  0  0  0  0  0
   26.2770    8.9710   -8.0480 S   0  0  0  0  0  0  0  0  0  0  0  0
   25.6070    7.6710   -7.0860 N   0  0  0  0  0  0  0  0  0  0  0  0
  1  2  2  0
  2  3  1  0
M  END
>  <Pose ID>  (103)
227

>  <Score>  (103)
-7.483866095542908

$$$$

     RDKit          3D

  3  2  0  0  0  0  0  0  0  0999 V2000
   23.9970    3.4560    0.0510 C   0  0  0  0  0  0  0  0  0  0  0  0
   23.1850    4.5740   -0.6170 C   0  0  0  0  0  0  0  0  0  0  0  0
   23.1770    2.4330    0.6210 O   0  0  0  0  0  0  0  0  0  0  0  0
  1  2  1  0
  1  3  1  0
M  END
>  <Pose ID>  (104)
247

>  <Score>  (104)
-7.481881022453308

$$$$

     RDKit          3D

  3  2  0  0  0  0  0  0  0  0999 V2000
   27.5420   13.3220  -11.2150 N   0  0  0  0  0  0  0  0  0  0  0  0
   27.4850   12.0990  -10.6380 C   0  0  0  0  0  0  0  0  0  0  0  0
   27.5920   11.9830   -9.4270 O   0  0  0  0  0  0  0  0  0  0  0  0
  1  2  1  0
  2  3  2  0
M  END
>  <Pose ID>  (105)
329

>  <Score>  (105)
-7.453629732131958

$$$$

     RDKit          3D

  3  2  0  0  0  0  0  0  0  0999 V2000
   27.2470    8.7210   -8.4260 C   0  0  0  0  0  0  0  0  0  0  0  0
   27.3840    9.5340   -9.2960 O   0  0  0  0  0  0  0  0  0  0  0  0
   27.7420    8.9020   -7.3210 O   0  0  0  0  0  0  0  0  0  0  0  0
  1  2  2  0
  1  3  1  0
M  CHG  1   3  -1
M  END
>  <Pose ID>  (106)
102

>  <Score>  (106)
-7.444999098777771

$$$$

     RDKit          3D

  3  2  0  0  0  0  0  0  0  0999 V2000
   25.2310    9.3740   -7.6270 C   0  0  0  0  0  0  0  0  0  0  0  0
   25.4680    9.7850   -9.0220 N   0  0  0  0  0  0  0  0  0  0  0  0
   26.0640    8.6460   -9.6800 N   0  0  0  0  0  0  0  0  0  0  0  0
  1  2  1  0
  2  3  1  0
M  END
>  <Pose ID>  (107)
296

>  <Score>  (107)
-7.4316725730896

$$$$

     RDKit          3D

  3  2  0  0  0  0  0  0  0  0999 V2000
   30.3680   11.5930  -12.9850 C   0  0  0  0  0  0  0  0  0  0  0  0
   30.9030   12.7270  -13.4220 N   0  0  0  0  0  0  0  0  0  0  0  0
   28.9750   11.6780  -12.8960 N   0  0  0  0  0  0  0  0  0  0  0  0
  1  2  2  0
  1  3  1  0
M  END
>  <Pose ID>  (108)
286

>  <Score>  (108)
-7.427141070365906

$$$$

     RDKit          3D

  3  2  0  0  0  0  0  0  0  0999 V2000
   27.3030    9.5740  -10.5590 C   0  0  0  0  0  0  0  0  0  0  0  0
   27.8900    8.2480  -10.5440 C   0  0  0  0  0  0  0  0  0  0  0  0
   27.6550    7.2690   -9.7970 O   0  0  0  0  0  0  0  0  0  0  0  0
  1  2  1  0
  2  3  2  0
M  END
>  <Pose ID>  (109)
165

>  <Score>  (109)
-7.425696134567261

$$$$

     RDKit          3D

  3  2  0  0  0  0  0  0  0  0999 V2000
   24.5160    8.0060   -6.1100 C   0  0  0  0  0  0  0  0  0  0  0  0
   24.5880    9.1760   -5.8160 O   0  0  0  0  0  0  0  0  0  0  0  0
   25.5330    7.3920   -6.9760 N   0  0  0  0  0  0  0  0  0  0  0  0
  1  3  1  0
  1  2  2  0
M  END
>  <Pose ID>  (110)
217

>  <Score>  (110)
-7.387102693319321

$$$$

     RDKit          3D

  3  2  0  0  0  0  0  0  0  0999 V2000
   29.5320   12.8450  -13.1100 C   0  0  0  0  0  0  0  0  0  0  0  0
   28.0530   12.5920  -13.4330 C   0  0  0  0  0  0  0  0  0  0  0  0
   30.2310   13.5940  -14.1640 N   0  0  0  0  0  0  0  0  0  0  0  0
  1  3  1  0
  1  2  1  0
M  CHG  1   3   1
M  END
>  <Pose ID>  (111)
57

>  <Score>  (111)
-7.381308302283287

$$$$

     RDKit          3D

  3  2  0  0  0  0  0  0  0  0999 V2000
   29.3860   11.1980  -12.7580 C   0  0  0  0  0  0  0  0  0  0  0  0
   30.5450   10.8630  -12.7180 O   0  0  0  0  0  0  0  0  0  0  0  0
   29.0140   12.5350  -13.2460 N   0  0  0  0  0  0  0  0  0  0  0  0
  1  3  1  0
  1  2  2  0
M  END
>  <Pose ID>  (112)
218

>  <Score>  (112)
-7.380309581756592

$$$$

     RDKit          3D

  3  2  0  0  0  0  0  0  0  0999 V2000
   27.4560   10.5380   -8.8070 O   0  0  0  0  0  0  0  0  0  0  0  0
   26.6940    9.3150   -9.0390 S   0  0  0  0  0  0  0  0  0  0  0  0
   25.4070    9.3370   -9.7300 O   0  0  0  0  0  0  0  0  0  0  0  0
  1  2  2  0
  2  3  2  0
M  END
>  <Pose ID>  (113)
113

>  <Score>  (113)
-7.3801469802856445

$$$$

     RDKit          3D

  3  2  0  0  0  0  0  0  0  0999 V2000
   26.2810   13.8090   -7.6830 C   0  0  0  0  0  0  0  0  0  0  0  0
   26.3820   11.9180   -9.1780 C   0  0  0  0  0  0  0  0  0  0  0  0
   25.7910   13.2050   -8.8990 O   0  0  0  0  0  0  0  0  0  0  0  0
  1  3  1  0
  2  3  1  0
M  END
>  <Pose ID>  (114)
122

>  <Score>  (114)
-7.379161477088928

$$$$

     RDKit          3D

  3  2  0  0  0  0  0  0  0  0999 V2000
   27.7480    9.9870  -12.2310 C   0  0  0  0  0  0  0  0  0  0  0  0
   28.9900    9.3760  -12.0910 C   0  0  0  0  0  0  0  0  0  0  0  0
   29.0600    8.0940  -11.6300 O   0  0  0  0  0  0  0  0  0  0  0  0
  1  2  2  0
  2  3  1  0
M  END
>  <Pose ID>  (115)
273

>  <Score>  (115)
-7.374102592468262

$$$$

     RDKit          3D

  3  2  0  0  0  0  0  0  0  0999 V2000
   23.0560    9.6500   -1.7180 C   0  0  0  0  0  0  0  0  0  0  0  0
   24.0000    9.8270   -2.8950 N   0  0  0  0  0  0  0  0  0  0  0  0
   22.6210   10.7520   -1.0100 N   0  0  0  0  0  0  0  0  0  0  0  0
  1  2  1  0
  1  3  1  0
M  END
>  <Pose ID>  (116)
42

>  <Score>  (116)
-7.366911888122559

$$$$

     RDKit          3D

  3  2  0  0  0  0  0  0  0  0999 V2000
   28.8800   12.7390  -12.9340 C   0  0  0  0  0  0  0  0  0  0  0  0
   29.9550   11.6380  -12.8630 C   0  0  0  0  0  0  0  0  0  0  0  0
   29.4330   13.9990  -12.4170 N   0  0  0  0  0  0  0  0  0  0  0  0
  3  1  1  0
  1  2  1  0
M  CHG  1   3   1
M  END
>  <Pose ID>  (117)
17

>  <Score>  (117)
-7.347789685241878

$$$$

     RDKit          3D

  3  2  0  0  0  0  0  0  0  0999 V2000
   26.9100   10.0330  -10.6610 C   0  0  0  0  0  0  0  0  0  0  0  0
   27.1320    8.8610  -10.0110 N   0  0  0  0  0  0  0  0  0  0  0  0
   28.1460    8.0770  -10.4550 C   0  0  0  0  0  0  0  0  0  0  0  0
  3  2  2  0
  2  1  1  0
M  END
>  <Pose ID>  (118)
197

>  <Score>  (118)
-7.341517090797424

$$$$

     RDKit          3D

  3  2  0  0  0  0  0  0  0  0999 V2000
   28.1860   14.0700  -12.6100 C   0  0  0  0  0  0  0  0  0  0  0  0
   27.4530   15.2390  -12.5730 N   0  0  0  0  0  0  0  0  0  0  0  0
   29.6380   14.0690  -12.1590 N   0  0  0  0  0  0  0  0  0  0  0  0
  1  2  1  0
  1  3  1  0
M  END
>  <Pose ID>  (119)
43

>  <Score>  (119)
-7.279559373855591

$$$$

     RDKit          3D

  3  2  0  0  0  0  0  0  0  0999 V2000
   26.3620    7.3580   -8.0840 N   0  0  0  0  0  0  0  0  0  0  0  0
   25.5140    8.1680   -7.4100 C   0  0  0  0  0  0  0  0  0  0  0  0
   24.9930    7.7890   -6.3720 O   0  0  0  0  0  0  0  0  0  0  0  0
  1  2  1  0
  2  3  2  0
M  END
>  <Pose ID>  (120)
330

>  <Score>  (120)
-7.275472907349467

$$$$

     RDKit          3D

  3  2  0  0  0  0  0  0  0  0999 V2000
   25.4940   10.8160   -6.9200 C   0  0  0  0  0  0  0  0  0  0  0  0
   26.4100   10.6060   -7.9440 C   0  0  0  0  0  0  0  0  0  0  0  0
   27.0270   11.6770   -8.5230 O   0  0  0  0  0  0  0  0  0  0  0  0
  1  2  2  0
  2  3  1  0
M  END
>  <Pose ID>  (121)
274

>  <Score>  (121)
-7.257265508174896

$$$$

     RDKit          3D

  3  2  0  0  0  0  0  0  0  0999 V2000
   27.0800   12.4290  -10.5370 C   0  0  0  0  0  0  0  0  0  0  0  0
   27.1730   11.0670  -10.0300 N   0  0  0  0  0  0  0  0  0  0  0  0
   27.2020   12.8550  -11.9260 N   0  0  0  0  0  0  0  0  0  0  0  0
  1  3  2  0
  1  2  1  0
M  END
>  <Pose ID>  (122)
213

>  <Score>  (122)
-7.252002120018005

$$$$

     RDKit          3D

  3  2  0  0  0  0  0  0  0  0999 V2000
   18.7070    7.4050   -1.3400 C   0  0  0  0  0  0  0  0  0  0  0  0
   20.0650    6.9600   -0.7660 C   0  0  0  0  0  0  0  0  0  0  0  0
   17.6460    7.1240   -0.3630 N   0  0  0  0  0  0  0  0  0  0  0  0
  3  1  1  0
  1  2  1  0
M  CHG  1   3   1
M  END
>  <Pose ID>  (123)
18

>  <Score>  (123)
-7.243667244911194

$$$$

     RDKit          3D

  3  2  0  0  0  0  0  0  0  0999 V2000
   23.7390    7.2570   -5.0690 C   0  0  0  0  0  0  0  0  0  0  0  0
   23.5560    8.2760   -3.9350 C   0  0  0  0  0  0  0  0  0  0  0  0
   24.6130    6.1360   -4.6990 N   0  0  0  0  0  0  0  0  0  0  0  0
  1  3  1  0
  1  2  1  0
M  CHG  1   3   1
M  END
>  <Pose ID>  (124)
58

>  <Score>  (124)
-7.193253964185715

$$$$

     RDKit          3D

  3  2  0  0  0  0  0  0  0  0999 V2000
   28.9760   12.6460  -10.8050 C   0  0  0  0  0  0  0  0  0  0  0  0
   29.6640   12.2970  -11.9290 N   0  0  0  0  0  0  0  0  0  0  0  0
   29.4720   13.6820   -9.9990 N   0  0  0  0  0  0  0  0  0  0  0  0
  1  2  2  0
  1  3  1  0
M  END
>  <Pose ID>  (125)
315

>  <Score>  (125)
-7.18241810798645

$$$$

     RDKit          3D

  3  2  0  0  0  0  0  0  0  0999 V2000
   26.5980   16.9210  -13.1060 C   0  0  0  0  0  0  0  0  0  0  0  0
   27.2170   18.0790  -13.5320 N   0  0  0  0  0  0  0  0  0  0  0  0
   27.3830   15.8860  -12.3180 N   0  0  0  0  0  0  0  0  0  0  0  0
  1  2  1  0
  1  3  1  0
M  END
>  <Pose ID>  (126)
44

>  <Score>  (126)
-7.180338382720947

$$$$

     RDKit          3D

  3  2  0  0  0  0  0  0  0  0999 V2000
   29.6720   12.0290  -13.0790 C   0  0  0  0  0  0  0  0  0  0  0  0
   29.8320   10.6710  -12.5730 N   0  0  0  0  0  0  0  0  0  0  0  0
   28.6080    9.9560  -12.3140 N   0  0  0  0  0  0  0  0  0  0  0  0
  1  2  1  0
  2  3  2  0
M  END
>  <Pose ID>  (127)
203

>  <Score>  (127)
-7.1789867877960205

$$$$

     RDKit          3D

  3  2  0  0  0  0  0  0  0  0999 V2000
   16.8120    9.7840   -2.4300 C   0  0  0  0  0  0  0  0  0  0  0  0
   16.2840    9.8350   -3.6480 N   0  0  0  0  0  0  0  0  0  0  0  0
   18.1360   10.2330   -2.4210 N   0  0  0  0  0  0  0  0  0  0  0  0
  1  2  2  0
  1  3  1  0
M  END
>  <Pose ID>  (128)
287

>  <Score>  (128)
-7.175703854765743

$$$$

     RDKit          3D

  3  2  0  0  0  0  0  0  0  0999 V2000
   27.0490    9.6840  -10.1390 C   0  0  0  0  0  0  0  0  0  0  0  0
   25.8390    9.3710   -9.4030 C   0  0  0  0  0  0  0  0  0  0  0  0
   24.8900   10.1120   -9.0590 O   0  0  0  0  0  0  0  0  0  0  0  0
  1  2  1  0
  2  3  2  0
M  END
>  <Pose ID>  (129)
166

>  <Score>  (129)
-7.1747727394104

$$$$

     RDKit          3D

  3  2  0  0  0  0  0  0  0  0999 V2000
   27.2940   17.5320   -8.6130 C   0  0  0  0  0  0  0  0  0  0  0  0
   27.7350   18.9110   -8.7670 C   0  0  0  0  0  0  0  0  0  0  0  0
   27.5100   19.7850   -7.8870 O   0  0  0  0  0  0  0  0  0  0  0  0
  1  2  1  0
  2  3  2  0
M  END
>  <Pose ID>  (130)
183

>  <Score>  (130)
-7.168947886675596

$$$$

     RDKit          3D

  3  2  0  0  0  0  0  0  0  0999 V2000
   27.4510   11.7070   -9.6070 C   0  0  0  0  0  0  0  0  0  0  0  0
   26.1540   13.4610   -9.1810 C   0  0  0  0  0  0  0  0  0  0  0  0
   27.4750   13.0650   -9.3750 N   0  0  0  0  0  0  0  0  0  0  0  0
  1  3  1  0
  2  3  1  0
M  END
>  <Pose ID>  (131)
74

>  <Score>  (131)
-7.138396978378296

$$$$

     RDKit          3D

  3  2  0  0  0  0  0  0  0  0999 V2000
   28.1920   11.1950  -12.6610 C   0  0  0  0  0  0  0  0  0  0  0  0
   27.9910   12.4820  -13.0640 N   0  0  0  0  0  0  0  0  0  0  0  0
   27.0860   10.4230  -12.2770 N   0  0  0  0  0  0  0  0  0  0  0  0
  1  2  2  0
  1  3  1  0
M  END
>  <Pose ID>  (132)
316

>  <Score>  (132)
-7.130832374095917

$$$$

     RDKit          3D

  3  2  0  0  0  0  0  0  0  0999 V2000
   27.2690   12.2870  -10.6390 C   0  0  0  0  0  0  0  0  0  0  0  0
   27.2410   11.1000  -11.3890 C   0  0  0  0  0  0  0  0  0  0  0  0
   27.1890    9.7550  -10.6820 N   0  0  0  0  0  0  0  0  0  0  0  0
  1  2  2  0
  2  3  1  0
M  END
>  <Pose ID>  (133)
90

>  <Score>  (133)
-7.10325288772583

$$$$

     RDKit          3D

  3  2  0  0  0  0  0  0  0  0999 V2000
   25.7820    8.7590   -7.4870 C   0  0  0  0  0  0  0  0  0  0  0  0
   25.1280    9.7050   -7.8530 O   0  0  0  0  0  0  0  0  0  0  0  0
   25.2210    7.7860   -6.5370 N   0  0  0  0  0  0  0  0  0  0  0  0
  1  2  2  0
  1  3  1  0
M  END
>  <Pose ID>  (134)
219

>  <Score>  (134)
-7.039199948310852

$$$$

     RDKit          3D

  3  2  0  0  0  0  0  0  0  0999 V2000
   27.7590   10.6600  -11.5730 C   0  0  0  0  0  0  0  0  0  0  0  0
   27.1030   10.1010  -10.4810 C   0  0  0  0  0  0  0  0  0  0  0  0
   26.1680   10.8340   -9.8100 O   0  0  0  0  0  0  0  0  0  0  0  0
  1  2  2  0
  2  3  1  0
M  END
>  <Pose ID>  (135)
275

>  <Score>  (135)
-6.988560177385807

$$$$

     RDKit          3D

  3  2  0  0  0  0  0  0  0  0999 V2000
   27.4700   10.0420  -11.1840 C   0  0  0  0  0  0  0  0  0  0  0  0
   28.4300    9.1240  -11.4950 N   0  0  0  0  0  0  0  0  0  0  0  0
   26.3510    9.6290  -10.4480 N   0  0  0  0  0  0  0  0  0  0  0  0
  1  2  2  0
  1  3  1  0
M  END
>  <Pose ID>  (136)
317

>  <Score>  (136)
-6.964853525161743

$$$$

     RDKit          3D

  3  2  0  0  0  0  0  0  0  0999 V2000
   22.4230    6.6670   -5.6300 N   0  0  0  0  0  0  0  0  0  0  0  0
   21.0990    6.4930   -5.7060 C   0  0  0  0  0  0  0  0  0  0  0  0
   20.5040    5.4490   -5.9200 O   0  0  0  0  0  0  0  0  0  0  0  0
  1  2  1  0
  2  3  2  0
M  END
>  <Pose ID>  (137)
258

>  <Score>  (137)
-6.9333717823028564

$$$$

     RDKit          3D

  3  2  0  0  0  0  0  0  0  0999 V2000
   28.7620    9.3720  -12.0910 C   0  0  0  0  0  0  0  0  0  0  0  0
   30.0260   11.1420  -12.7720 C   0  0  0  0  0  0  0  0  0  0  0  0
   30.1140    9.7640  -12.3790 O   0  0  0  0  0  0  0  0  0  0  0  0
  1  3  1  0
  2  3  1  0
M  END
>  <Pose ID>  (138)
156

>  <Score>  (138)
-6.921834260225296

$$$$

     RDKit          3D

  3  2  0  0  0  0  0  0  0  0999 V2000
   29.5420   12.6490  -13.4920 C   0  0  0  0  0  0  0  0  0  0  0  0
   28.1780   12.6730  -13.4700 N   0  0  0  0  0  0  0  0  0  0  0  0
   30.2290   13.6970  -14.1210 N   0  0  0  0  0  0  0  0  0  0  0  0
  1  3  1  0
  1  2  2  0
M  END
>  <Pose ID>  (139)
318

>  <Score>  (139)
-6.914839118719101

$$$$

     RDKit          3D

  3  2  0  0  0  0  0  0  0  0999 V2000
   27.2510   12.5030  -13.3530 C   0  0  0  0  0  0  0  0  0  0  0  0
   27.3280   13.5680  -12.5120 N   0  0  0  0  0  0  0  0  0  0  0  0
   27.3720   13.3160  -11.1800 C   0  0  0  0  0  0  0  0  0  0  0  0
  3  2  2  0
  2  1  1  0
M  END
>  <Pose ID>  (140)
198

>  <Score>  (140)
-6.914564251899719

$$$$

     RDKit          3D

  3  2  0  0  0  0  0  0  0  0999 V2000
   29.2460   12.3590  -12.0340 C   0  0  0  0  0  0  0  0  0  0  0  0
   27.5770   13.9950  -12.5870 C   0  0  0  0  0  0  0  0  0  0  0  0
   29.0060   13.6600  -12.6760 N   0  0  0  0  0  0  0  0  0  0  0  0
  1  3  1  0
  2  3  1  0
M  CHG  1   3   1
M  END
>  <Pose ID>  (141)
67

>  <Score>  (141)
-6.914313633926213

$$$$

     RDKit          3D

  3  2  0  0  0  0  0  0  0  0999 V2000
   30.0700   11.4340  -12.9180 C   0  0  0  0  0  0  0  0  0  0  0  0
   29.4110   12.5470  -13.4670 C   0  0  0  0  0  0  0  0  0  0  0  0
   30.2170   13.6730  -14.0950 N   0  0  0  0  0  0  0  0  0  0  0  0
  1  2  2  0
  2  3  1  0
M  END
>  <Pose ID>  (142)
91

>  <Score>  (142)
-6.90523174405098

$$$$

     RDKit          3D

  3  2  0  0  0  0  0  0  0  0999 V2000
   27.3420   10.5260  -10.3620 C   0  0  0  0  0  0  0  0  0  0  0  0
   27.7290    9.1260  -10.4530 C   0  0  0  0  0  0  0  0  0  0  0  0
   27.2370    8.2470   -9.6980 O   0  0  0  0  0  0  0  0  0  0  0  0
  1  2  1  0
  2  3  2  0
M  END
>  <Pose ID>  (143)
184

>  <Score>  (143)
-6.886172311380506

$$$$

     RDKit          3D

  3  2  0  0  0  0  0  0  0  0999 V2000
   26.8310   12.5810  -10.5750 C   0  0  0  0  0  0  0  0  0  0  0  0
   27.2310   12.9640  -11.6390 O   0  0  0  0  0  0  0  0  0  0  0  0
   26.2990   13.3570   -9.7920 O   0  0  0  0  0  0  0  0  0  0  0  0
  1  2  2  0
  1  3  1  0
M  CHG  1   3  -1
M  END
>  <Pose ID>  (144)
103

>  <Score>  (144)
-6.863963842391968

$$$$

     RDKit          3D

  3  2  0  0  0  0  0  0  0  0999 V2000
   23.0310   10.5500   -0.3920 O   0  0  0  0  0  0  0  0  0  0  0  0
   22.7860    9.7140   -1.5880 S   0  0  0  0  0  0  0  0  0  0  0  0
   24.3210    9.7440   -2.4280 N   0  0  0  0  0  0  0  0  0  0  0  0
  1  2  2  0
  2  3  1  0
M  END
>  <Pose ID>  (145)
228

>  <Score>  (145)
-6.862661949591711

$$$$

     RDKit          3D

  3  2  0  0  0  0  0  0  0  0999 V2000
   26.9460   14.5870  -10.7600 C   0  0  0  0  0  0  0  0  0  0  0  0
   29.3550   14.3780  -10.7570 C   0  0  0  0  0  0  0  0  0  0  0  0
   28.2050   15.0960  -11.3440 N   0  0  0  0  0  0  0  0  0  0  0  0
  1  3  1  0
  2  3  1  0
M  CHG  1   3   1
M  END
>  <Pose ID>  (146)
50

>  <Score>  (146)
-6.827876582741737

$$$$

     RDKit          3D

  3  2  0  0  0  0  0  0  0  0999 V2000
   29.4690   12.1240  -12.1540 C   0  0  0  0  0  0  0  0  0  0  0  0
   27.7710   10.4100  -12.1510 C   0  0  0  0  0  0  0  0  0  0  0  0
   28.2180   11.6660  -11.5990 O   0  0  0  0  0  0  0  0  0  0  0  0
  1  3  1  0
  2  3  1  0
M  END
>  <Pose ID>  (147)
123

>  <Score>  (147)
-6.8262187242507935

$$$$

     RDKit          3D

  3  2  0  0  0  0  0  0  0  0999 V2000
   27.4740   13.6310  -12.2650 C   0  0  0  0  0  0  0  0  0  0  0  0
   27.3670   13.2690  -10.9550 N   0  0  0  0  0  0  0  0  0  0  0  0
   27.5570   14.9930  -12.5880 N   0  0  0  0  0  0  0  0  0  0  0  0
  1  3  1  0
  1  2  2  0
M  END
>  <Pose ID>  (148)
319

>  <Score>  (148)
-6.7781760692596436

$$$$

     RDKit          3D

  3  2  0  0  0  0  0  0  0  0999 V2000
   24.2360    7.3170   -5.7670 C   0  0  0  0  0  0  0  0  0  0  0  0
   23.3430    9.3980   -6.0160 C   0  0  0  0  0  0  0  0  0  0  0  0
   24.5590    8.6540   -6.1830 O   0  0  0  0  0  0  0  0  0  0  0  0
  1  3  1  0
  2  3  1  0
M  END
>  <Pose ID>  (149)
157

>  <Score>  (149)
-6.771633744239807

$$$$

     RDKit          3D

  3  2  0  0  0  0  0  0  0  0999 V2000
   26.8850    9.9140  -10.5980 C   0  0  0  0  0  0  0  0  0  0  0  0
   25.3100   10.1450   -9.0460 C   0  0  0  0  0  0  0  0  0  0  0  0
   25.9310    9.2210   -9.8830 N   0  0  0  0  0  0  0  0  0  0  0  0
  1  3  1  0
  2  3  1  0
M  END
>  <Pose ID>  (150)
75

>  <Score>  (150)
-6.770830988883972

$$$$

     RDKit          3D

  3  2  0  0  0  0  0  0  0  0999 V2000
   25.8680   10.9860   -7.9220 C   0  0  0  0  0  0  0  0  0  0  0  0
   26.4080   12.9990   -6.7300 C   0  0  0  0  0  0  0  0  0  0  0  0
   25.7870   11.6710   -6.6240 N   0  0  0  0  0  0  0  0  0  0  0  0
  1  3  1  0
  2  3  1  0
M  CHG  1   3   1
M  END
>  <Pose ID>  (151)
4

>  <Score>  (151)
-6.744168020784855

$$$$

     RDKit          3D

  3  2  0  0  0  0  0  0  0  0999 V2000
   26.7090   10.0900   -9.9370 C   0  0  0  0  0  0  0  0  0  0  0  0
   25.7380    9.8640   -9.0070 N   0  0  0  0  0  0  0  0  0  0  0  0
   26.7720   11.3450  -10.5600 N   0  0  0  0  0  0  0  0  0  0  0  0
  1  3  1  0
  1  2  2  0
M  END
>  <Pose ID>  (152)
320

>  <Score>  (152)
-6.729670464992523

$$$$

     RDKit          3D

  3  2  0  0  0  0  0  0  0  0999 V2000
   27.4320   10.2890  -11.2950 C   0  0  0  0  0  0  0  0  0  0  0  0
   26.9640   11.3910  -11.4560 O   0  0  0  0  0  0  0  0  0  0  0  0
   26.8510    9.3710  -10.3030 N   0  0  0  0  0  0  0  0  0  0  0  0
  1  2  2  0
  1  3  1  0
M  END
>  <Pose ID>  (153)
220

>  <Score>  (153)
-6.714048981666565

$$$$

     RDKit          3D

  3  2  0  0  0  0  0  0  0  0999 V2000
   27.2740   12.6870  -11.9350 C   0  0  0  0  0  0  0  0  0  0  0  0
   27.2320   10.5780  -11.2350 C   0  0  0  0  0  0  0  0  0  0  0  0
   27.2730   11.9010  -10.8030 N   0  0  0  0  0  0  0  0  0  0  0  0
  1  3  1  0
  2  3  1  0
M  END
>  <Pose ID>  (154)
76

>  <Score>  (154)
-6.699705004692078

$$$$

     RDKit          3D

  3  2  0  0  0  0  0  0  0  0999 V2000
   27.0920    8.0130   -9.6000 C   0  0  0  0  0  0  0  0  0  0  0  0
   28.0350    7.3870  -10.3890 N   0  0  0  0  0  0  0  0  0  0  0  0
   26.5040    7.2890   -8.4000 N   0  0  0  0  0  0  0  0  0  0  0  0
  1  2  1  0
  1  3  1  0
M  END
>  <Pose ID>  (155)
45

>  <Score>  (155)
-6.638278424739838

$$$$

     RDKit          3D

  3  2  0  0  0  0  0  0  0  0999 V2000
   28.7470   11.4220  -12.2560 C   0  0  0  0  0  0  0  0  0  0  0  0
   28.0280   10.3490  -11.5850 C   0  0  0  0  0  0  0  0  0  0  0  0
   26.8940   10.5280  -11.0670 O   0  0  0  0  0  0  0  0  0  0  0  0
  1  2  1  0
  2  3  2  0
M  END
>  <Pose ID>  (156)
185

>  <Score>  (156)
-6.624155640602112

$$$$

     RDKit          3D

  3  2  0  0  0  0  0  0  0  0999 V2000
   27.7530   11.6130  -11.2810 C   0  0  0  0  0  0  0  0  0  0  0  0
   28.7840   12.2230  -11.1270 O   0  0  0  0  0  0  0  0  0  0  0  0
   26.5790   11.9130  -10.4480 N   0  0  0  0  0  0  0  0  0  0  0  0
  1  2  2  0
  1  3  1  0
M  END
>  <Pose ID>  (157)
221

>  <Score>  (157)
-6.606022477149963

$$$$

     RDKit          3D

  3  2  0  0  0  0  0  0  0  0999 V2000
   27.9020   10.7540  -12.5070 C   0  0  0  0  0  0  0  0  0  0  0  0
   29.7210   11.9440  -12.9750 C   0  0  0  0  0  0  0  0  0  0  0  0
   28.3290   11.9820  -12.9650 N   0  0  0  0  0  0  0  0  0  0  0  0
  1  3  1  0
  2  3  1  0
M  END
>  <Pose ID>  (158)
77

>  <Score>  (158)
-6.601675271987915

$$$$

     RDKit          3D

  3  2  0  0  0  0  0  0  0  0999 V2000
   22.1760    8.1150   -0.7240 C   0  0  0  0  0  0  0  0  0  0  0  0
   23.2140    8.8510   -1.1050 N   0  0  0  0  0  0  0  0  0  0  0  0
   21.0500    8.3600   -1.5160 N   0  0  0  0  0  0  0  0  0  0  0  0
  1  3  1  0
  1  2  2  0
M  END
>  <Pose ID>  (159)
288

>  <Score>  (159)
-6.578172326087952

$$$$

     RDKit          3D

  3  2  0  0  0  0  0  0  0  0999 V2000
   25.7390    9.7440   -9.4470 C   0  0  0  0  0  0  0  0  0  0  0  0
   26.6900   10.1860  -10.4590 N   0  0  0  0  0  0  0  0  0  0  0  0
   27.7500    9.2580  -10.7650 N   0  0  0  0  0  0  0  0  0  0  0  0
  1  2  1  0
  2  3  2  0
M  END
>  <Pose ID>  (160)
204

>  <Score>  (160)
-6.569146513938904

$$$$

     RDKit          3D

  3  2  0  0  0  0  0  0  0  0999 V2000
   26.9440   11.3080  -10.5220 C   0  0  0  0  0  0  0  0  0  0  0  0
   25.3750   10.3050   -9.2090 C   0  0  0  0  0  0  0  0  0  0  0  0
   25.8710   11.5910   -9.6100 O   0  0  0  0  0  0  0  0  0  0  0  0
  1  3  1  0
  2  3  1  0
M  END
>  <Pose ID>  (161)
158

>  <Score>  (161)
-6.567423582077026

$$$$

     RDKit          3D

  3  2  0  0  0  0  0  0  0  0999 V2000
   25.4800   19.2010  -14.1170 O   0  0  0  0  0  0  0  0  0  0  0  0
   26.5640   18.3920  -13.5150 S   0  0  0  0  0  0  0  0  0  0  0  0
   27.7200   18.2280  -14.8190 N   0  0  0  0  0  0  0  0  0  0  0  0
  1  2  2  0
  2  3  1  0
M  END
>  <Pose ID>  (162)
229

>  <Score>  (162)
-6.553333282470703

$$$$

     RDKit          3D

  3  2  0  0  0  0  0  0  0  0999 V2000
   27.7750   10.4140  -11.7680 C   0  0  0  0  0  0  0  0  0  0  0  0
   28.7180    9.3690  -12.1470 N   0  0  0  0  0  0  0  0  0  0  0  0
   28.7540    8.2190  -11.2790 N   0  0  0  0  0  0  0  0  0  0  0  0
  1  2  1  0
  2  3  2  0
M  END
>  <Pose ID>  (163)
205

>  <Score>  (163)
-6.547728296369314

$$$$

     RDKit          3D

  3  2  0  0  0  0  0  0  0  0999 V2000
   16.7660   13.5770   -6.7990 C   0  0  0  0  0  0  0  0  0  0  0  0
   16.2090   14.6820   -5.8820 C   0  0  0  0  0  0  0  0  0  0  0  0
   17.2430   12.4540   -5.9790 N   0  0  0  0  0  0  0  0  0  0  0  0
  3  1  1  0
  1  2  1  0
M  CHG  1   3   1
M  END
>  <Pose ID>  (164)
19

>  <Score>  (164)
-6.545437693595886

$$$$

     RDKit          3D

  3  2  0  0  0  0  0  0  0  0999 V2000
   25.4980   16.8960  -12.3730 C   0  0  0  0  0  0  0  0  0  0  0  0
   27.0210   18.5670  -12.9250 N   0  0  0  0  0  0  0  0  0  0  0  0
   26.4880   17.8150  -11.8130 N   0  0  0  0  0  0  0  0  0  0  0  0
  1  3  2  0
  2  3  1  0
M  END
>  <Pose ID>  (165)
305

>  <Score>  (165)
-6.538610816001892

$$$$

     RDKit          3D

  3  2  0  0  0  0  0  0  0  0999 V2000
   27.0540    9.8570  -10.5760 C   0  0  0  0  0  0  0  0  0  0  0  0
   25.9440    9.2620   -9.8130 N   0  0  0  0  0  0  0  0  0  0  0  0
   25.2710   10.3590   -9.1590 N   0  0  0  0  0  0  0  0  0  0  0  0
  1  2  1  0
  2  3  1  0
M  END
>  <Pose ID>  (166)
297

>  <Score>  (166)
-6.502644181251526

$$$$

     RDKit          3D

  3  2  0  0  0  0  0  0  0  0999 V2000
   30.0960   13.3740  -13.5050 C   0  0  0  0  0  0  0  0  0  0  0  0
   29.0470   13.2170  -11.3330 C   0  0  0  0  0  0  0  0  0  0  0  0
   29.9230   14.0360  -12.1960 N   0  0  0  0  0  0  0  0  0  0  0  0
  1  3  1  0
  2  3  1  0
M  CHG  1   3   1
M  END
>  <Pose ID>  (167)
51

>  <Score>  (167)
-6.499001789838076

$$$$

     RDKit          3D

  3  2  0  0  0  0  0  0  0  0999 V2000
   27.8310    8.1260  -10.0330 C   0  0  0  0  0  0  0  0  0  0  0  0
   27.3920    9.4250  -10.5060 C   0  0  0  0  0  0  0  0  0  0  0  0
   27.9630   10.2440  -11.2640 O   0  0  0  0  0  0  0  0  0  0  0  0
  1  2  1  0
  2  3  2  0
M  END
>  <Pose ID>  (168)
167

>  <Score>  (168)
-6.490523060783744

$$$$

     RDKit          3D

  3  2  0  0  0  0  0  0  0  0999 V2000
   23.1670    8.5110   -5.3940 C   0  0  0  0  0  0  0  0  0  0  0  0
   24.1270    7.4510   -5.6330 C   0  0  0  0  0  0  0  0  0  0  0  0
   24.2260    6.3190   -5.1080 O   0  0  0  0  0  0  0  0  0  0  0  0
  1  2  1  0
  2  3  2  0
M  END
>  <Pose ID>  (169)
168

>  <Score>  (169)
-6.486203847452998

$$$$

     RDKit          3D

  3  2  0  0  0  0  0  0  0  0999 V2000
   23.1650    7.6900   -0.3730 O   0  0  0  0  0  0  0  0  0  0  0  0
   22.9760    8.3510   -1.6840 S   0  0  0  0  0  0  0  0  0  0  0  0
   23.4420   10.0100   -1.3740 N   0  0  0  0  0  0  0  0  0  0  0  0
  1  2  2  0
  2  3  1  0
M  END
>  <Pose ID>  (170)
230

>  <Score>  (170)
-6.475873529911041

$$$$

     RDKit          3D

  3  2  0  0  0  0  0  0  0  0999 V2000
   26.9710   12.5850  -10.7180 C   0  0  0  0  0  0  0  0  0  0  0  0
   27.3110   12.8160  -12.0610 C   0  0  0  0  0  0  0  0  0  0  0  0
   27.3790   14.2380  -12.5940 N   0  0  0  0  0  0  0  0  0  0  0  0
  1  2  2  0
  2  3  1  0
M  END
>  <Pose ID>  (171)
92

>  <Score>  (171)
-6.46855103969574

$$$$

     RDKit          3D

  3  2  0  0  0  0  0  0  0  0999 V2000
   28.7080    9.6770  -12.1470 C   0  0  0  0  0  0  0  0  0  0  0  0
   29.8050   11.5570  -12.9670 N   0  0  0  0  0  0  0  0  0  0  0  0
   30.0240   10.2110  -12.4970 N   0  0  0  0  0  0  0  0  0  0  0  0
  1  3  2  0
  2  3  1  0
M  END
>  <Pose ID>  (172)
306

>  <Score>  (172)
-6.456224679946899

$$$$

     RDKit          3D

  3  2  0  0  0  0  0  0  0  0999 V2000
   28.9440   13.0970  -13.5620 C   0  0  0  0  0  0  0  0  0  0  0  0
   30.2330   13.5870  -14.0800 N   0  0  0  0  0  0  0  0  0  0  0  0
   31.2220   12.6120  -13.6870 N   0  0  0  0  0  0  0  0  0  0  0  0
  1  2  1  0
  2  3  1  0
M  END
>  <Pose ID>  (173)
298

>  <Score>  (173)
-6.434830844402313

$$$$

     RDKit          3D

  3  2  0  0  0  0  0  0  0  0999 V2000
   17.2440   12.4780   -5.2450 C   0  0  0  0  0  0  0  0  0  0  0  0
   17.2170   10.2520   -4.3480 C   0  0  0  0  0  0  0  0  0  0  0  0
   17.6250   11.0810   -5.4920 N   0  0  0  0  0  0  0  0  0  0  0  0
  1  3  1  0
  2  3  1  0
M  CHG  1   3   1
M  END
>  <Pose ID>  (174)
5

>  <Score>  (174)
-6.39890730381012

$$$$

     RDKit          3D

  3  2  0  0  0  0  0  0  0  0999 V2000
   26.4320    9.1710   -9.6210 C   0  0  0  0  0  0  0  0  0  0  0  0
   27.1140    7.9610   -9.5610 C   0  0  0  0  0  0  0  0  0  0  0  0
   26.7500    7.0290   -8.6340 O   0  0  0  0  0  0  0  0  0  0  0  0
  1  2  2  0
  2  3  1  0
M  END
>  <Pose ID>  (175)
276

>  <Score>  (175)
-6.372613430023193

$$$$

     RDKit          3D

  3  2  0  0  0  0  0  0  0  0999 V2000
   25.5620   16.7470  -13.4160 C   0  0  0  0  0  0  0  0  0  0  0  0
   27.0230   15.0960  -12.4660 C   0  0  0  0  0  0  0  0  0  0  0  0
   26.9230   16.4890  -12.9240 N   0  0  0  0  0  0  0  0  0  0  0  0
  1  3  1  0
  2  3  1  0
M  CHG  1   3   1
M  END
>  <Pose ID>  (176)
6

>  <Score>  (176)
-6.362664982676506

$$$$

     RDKit          3D

  3  2  0  0  0  0  0  0  0  0999 V2000
   22.5720    6.6850   -5.6610 O   0  0  0  0  0  0  0  0  0  0  0  0
   23.7190    7.3430   -4.9960 S   0  0  0  0  0  0  0  0  0  0  0  0
   24.8410    6.0280   -4.7210 N   0  0  0  0  0  0  0  0  0  0  0  0
  1  2  2  0
  2  3  1  0
M  END
>  <Pose ID>  (177)
231

>  <Score>  (177)
-6.3019985251594335

$$$$

     RDKit          3D

  3  2  0  0  0  0  0  0  0  0999 V2000
   25.7280    9.2450   -8.1080 C   0  0  0  0  0  0  0  0  0  0  0  0
   26.6190    9.5230   -9.2260 C   0  0  0  0  0  0  0  0  0  0  0  0
   26.7010   10.6690   -9.7430 O   0  0  0  0  0  0  0  0  0  0  0  0
  1  2  1  0
  2  3  2  0
M  END
>  <Pose ID>  (178)
186

>  <Score>  (178)
-6.279088616371155

$$$$

     RDKit          3D

  3  2  0  0  0  0  0  0  0  0999 V2000
   27.5180    7.9530   -9.6030 C   0  0  0  0  0  0  0  0  0  0  0  0
   28.0840    8.4080  -10.5580 O   0  0  0  0  0  0  0  0  0  0  0  0
   27.0260    6.8340   -9.6430 O   0  0  0  0  0  0  0  0  0  0  0  0
  1  2  2  0
  1  3  1  0
M  CHG  1   3  -1
M  END
>  <Pose ID>  (179)
104

>  <Score>  (179)
-6.194687537848949

$$$$

     RDKit          3D

  3  2  0  0  0  0  0  0  0  0999 V2000
   27.5690   10.6100  -12.4570 C   0  0  0  0  0  0  0  0  0  0  0  0
   28.0860   11.8410  -12.8930 C   0  0  0  0  0  0  0  0  0  0  0  0
   27.1430   12.9840  -13.2320 N   0  0  0  0  0  0  0  0  0  0  0  0
  1  2  2  0
  2  3  1  0
M  END
>  <Pose ID>  (180)
93

>  <Score>  (180)
-6.16416072845459

$$$$

     RDKit          3D

  3  2  0  0  0  0  0  0  0  0999 V2000
   23.8280   18.3850   -1.5550 C   0  0  0  0  0  0  0  0  0  0  0  0
   23.8070   19.4880   -1.0630 O   0  0  0  0  0  0  0  0  0  0  0  0
   24.1770   17.2120   -0.7380 N   0  0  0  0  0  0  0  0  0  0  0  0
  1  2  2  0
  1  3  1  0
M  END
>  <Pose ID>  (181)
222

>  <Score>  (181)
-6.141024887561798

$$$$

     RDKit          3D

  3  2  0  0  0  0  0  0  0  0999 V2000
   27.7990   14.1740  -11.4560 C   0  0  0  0  0  0  0  0  0  0  0  0
   27.4960   14.8470  -12.4020 O   0  0  0  0  0  0  0  0  0  0  0  0
   26.9480   13.5470  -10.8380 O   0  0  0  0  0  0  0  0  0  0  0  0
  1  2  2  0
  1  3  1  0
M  CHG  1   3  -1
M  END
>  <Pose ID>  (182)
105

>  <Score>  (182)
-6.133866930380464

$$$$

     RDKit          3D

  3  2  0  0  0  0  0  0  0  0999 V2000
   26.4850   10.1210  -10.0320 C   0  0  0  0  0  0  0  0  0  0  0  0
   25.5000    9.8740   -8.9870 N   0  0  0  0  0  0  0  0  0  0  0  0
   25.6020    8.5970   -8.3250 N   0  0  0  0  0  0  0  0  0  0  0  0
  1  2  1  0
  2  3  2  0
M  END
>  <Pose ID>  (183)
206

>  <Score>  (183)
-6.131636679172516

$$$$

     RDKit          3D

  3  2  0  0  0  0  0  0  0  0999 V2000
   27.3670   11.8280  -12.9970 C   0  0  0  0  0  0  0  0  0  0  0  0
   27.4120   10.4760  -12.4580 N   0  0  0  0  0  0  0  0  0  0  0  0
   28.5050   12.6760  -13.3310 N   0  0  0  0  0  0  0  0  0  0  0  0
  1  3  2  0
  1  2  1  0
M  END
>  <Pose ID>  (184)
214

>  <Score>  (184)
-6.12469656765461

$$$$

     RDKit          3D

  3  2  0  0  0  0  0  0  0  0999 V2000
   25.7500    9.0660   -9.5410 O   0  0  0  0  0  0  0  0  0  0  0  0
   26.3490    8.1080   -8.6160 S   0  0  0  0  0  0  0  0  0  0  0  0
   26.8070    6.7960   -9.0650 O   0  0  0  0  0  0  0  0  0  0  0  0
  1  2  2  0
  2  3  2  0
M  END
>  <Pose ID>  (185)
114

>  <Score>  (185)
-6.115921426564455

$$$$

     RDKit          3D

  3  2  0  0  0  0  0  0  0  0999 V2000
   16.2480   11.3110   -2.4060 N   0  0  0  0  0  0  0  0  0  0  0  0
   16.5910   11.8940   -3.5600 C   0  0  0  0  0  0  0  0  0  0  0  0
   16.4300   13.0630   -3.8710 O   0  0  0  0  0  0  0  0  0  0  0  0
  1  2  1  0
  2  3  2  0
M  END
>  <Pose ID>  (186)
259

>  <Score>  (186)
-6.062111139297485

$$$$

     RDKit          3D

  3  2  0  0  0  0  0  0  0  0999 V2000
   27.7450    9.7720  -10.9180 N   0  0  0  0  0  0  0  0  0  0  0  0
   27.2710   10.6420   -9.9960 C   0  0  0  0  0  0  0  0  0  0  0  0
   27.1240   10.2920   -8.8350 O   0  0  0  0  0  0  0  0  0  0  0  0
  1  2  1  0
  2  3  2  0
M  END
>  <Pose ID>  (187)
331

>  <Score>  (187)
-6.043133974075317

$$$$

     RDKit          3D

  3  2  0  0  0  0  0  0  0  0999 V2000
   29.1120   13.8330  -10.3400 C   0  0  0  0  0  0  0  0  0  0  0  0
   29.1470   12.6530  -11.0540 N   0  0  0  0  0  0  0  0  0  0  0  0
   30.0800   14.9550  -10.6790 N   0  0  0  0  0  0  0  0  0  0  0  0
  1  2  1  0
  1  3  1  0
M  END
>  <Pose ID>  (188)
46

>  <Score>  (188)
-6.026107013225555

$$$$

     RDKit          3D

  3  2  0  0  0  0  0  0  0  0999 V2000
   26.4460   10.9780   -6.3900 C   0  0  0  0  0  0  0  0  0  0  0  0
   24.9280   10.7700   -6.2780 C   0  0  0  0  0  0  0  0  0  0  0  0
   26.8160   12.3750   -6.6560 N   0  0  0  0  0  0  0  0  0  0  0  0
  1  3  1  0
  1  2  1  0
M  CHG  1   3   1
M  END
>  <Pose ID>  (189)
59

>  <Score>  (189)
-6.02473321557045

$$$$

     RDKit          3D

  3  2  0  0  0  0  0  0  0  0999 V2000
   27.0770    8.7040   -8.4580 C   0  0  0  0  0  0  0  0  0  0  0  0
   27.0810   10.0670   -8.2460 N   0  0  0  0  0  0  0  0  0  0  0  0
   26.4930    7.7740   -7.4070 N   0  0  0  0  0  0  0  0  0  0  0  0
  1  2  1  0
  1  3  1  0
M  END
>  <Pose ID>  (190)
47

>  <Score>  (190)
-6.018910109996796

$$$$

     RDKit          3D

  3  2  0  0  0  0  0  0  0  0999 V2000
   30.5070   11.5740  -12.9460 C   0  0  0  0  0  0  0  0  0  0  0  0
   30.2330   13.5880  -14.0780 N   0  0  0  0  0  0  0  0  0  0  0  0
   31.2230   12.6150  -13.6840 N   0  0  0  0  0  0  0  0  0  0  0  0
  1  3  2  0
  2  3  1  0
M  END
>  <Pose ID>  (191)
307

>  <Score>  (191)
-5.989610314369202

$$$$

     RDKit          3D

  3  2  0  0  0  0  0  0  0  0999 V2000
   27.2390    8.0570   -9.4970 C   0  0  0  0  0  0  0  0  0  0  0  0
   28.1310    7.3710  -10.5190 N   0  0  0  0  0  0  0  0  0  0  0  0
   26.5140    7.2560   -8.5000 N   0  0  0  0  0  0  0  0  0  0  0  0
  1  2  2  0
  1  3  1  0
M  CHG  1   2   1
M  END
>  <Pose ID>  (192)
27

>  <Score>  (192)
-5.985575079917908

$$$$

     RDKit          3D

  3  2  0  0  0  0  0  0  0  0999 V2000
   28.8110   14.2110   -9.7460 C   0  0  0  0  0  0  0  0  0  0  0  0
   29.0270   12.9470  -10.5910 C   0  0  0  0  0  0  0  0  0  0  0  0
   30.0240   14.7260   -9.1910 O   0  0  0  0  0  0  0  0  0  0  0  0
  1  2  1  0
  1  3  1  0
M  END
>  <Pose ID>  (193)
248

>  <Score>  (193)
-5.912166450172663

$$$$

     RDKit          3D

  3  2  0  0  0  0  0  0  0  0999 V2000
   27.1610   11.0060  -11.1170 C   0  0  0  0  0  0  0  0  0  0  0  0
   27.4260   13.1460  -12.1990 C   0  0  0  0  0  0  0  0  0  0  0  0
   26.8890   12.4230  -11.0710 O   0  0  0  0  0  0  0  0  0  0  0  0
  1  3  1  0
  2  3  1  0
M  END
>  <Pose ID>  (194)
124

>  <Score>  (194)
-5.899189591407776

$$$$

     RDKit          3D

  3  2  0  0  0  0  0  0  0  0999 V2000
   24.1250    8.8890   -2.2860 O   0  0  0  0  0  0  0  0  0  0  0  0
   23.4780    7.5960   -1.9700 S   0  0  0  0  0  0  0  0  0  0  0  0
   24.8210    6.5640   -1.5300 N   0  0  0  0  0  0  0  0  0  0  0  0
  1  2  2  0
  2  3  1  0
M  END
>  <Pose ID>  (195)
232

>  <Score>  (195)
-5.868725440464914

$$$$

     RDKit          3D

  3  2  0  0  0  0  0  0  0  0999 V2000
   17.1670   11.5830   -2.7000 O   0  0  0  0  0  0  0  0  0  0  0  0
   18.1810   12.0980   -3.6470 S   0  0  0  0  0  0  0  0  0  0  0  0
   18.1120   10.9610   -4.9760 N   0  0  0  0  0  0  0  0  0  0  0  0
  1  2  2  0
  2  3  1  0
M  END
>  <Pose ID>  (196)
233

>  <Score>  (196)
-5.8219509571790695

$$$$

     RDKit          3D

  3  2  0  0  0  0  0  0  0  0999 V2000
   22.8500   10.0280   -1.3680 C   0  0  0  0  0  0  0  0  0  0  0  0
   22.9250    8.7880   -0.8960 N   0  0  0  0  0  0  0  0  0  0  0  0
   23.3370   10.1130   -2.6760 N   0  0  0  0  0  0  0  0  0  0  0  0
  1  3  1  0
  1  2  2  0
M  END
>  <Pose ID>  (197)
289

>  <Score>  (197)
-5.816019674704876

$$$$

     RDKit          3D

  3  2  0  0  0  0  0  0  0  0999 V2000
   26.0870   18.8260  -13.8710 C   0  0  0  0  0  0  0  0  0  0  0  0
   26.3350   17.5690  -11.8280 C   0  0  0  0  0  0  0  0  0  0  0  0
   26.8030   18.6760  -12.6270 O   0  0  0  0  0  0  0  0  0  0  0  0
  1  3  1  0
  2  3  1  0
M  END
>  <Pose ID>  (198)
125

>  <Score>  (198)
-5.789984753035242

$$$$

     RDKit          3D

  3  2  0  0  0  0  0  0  0  0999 V2000
   27.5370   11.0740  -10.6760 C   0  0  0  0  0  0  0  0  0  0  0  0
   26.9230   10.2860   -9.5040 C   0  0  0  0  0  0  0  0  0  0  0  0
   27.0280   10.7480   -8.3690 O   0  0  0  0  0  0  0  0  0  0  0  0
  1  2  1  0
  2  3  2  0
M  END
>  <Pose ID>  (199)
145

>  <Score>  (199)
-5.785108041018248

$$$$

     RDKit          3D

  3  2  0  0  0  0  0  0  0  0999 V2000
   28.9290    9.4440  -12.0930 C   0  0  0  0  0  0  0  0  0  0  0  0
   27.6880   10.0060  -12.1360 N   0  0  0  0  0  0  0  0  0  0  0  0
   29.0650    8.1360  -11.6060 N   0  0  0  0  0  0  0  0  0  0  0  0
  1  2  2  0
  1  3  1  0
M  END
>  <Pose ID>  (200)
321

>  <Score>  (200)
-5.773842513561249

$$$$

     RDKit          3D

  3  2  0  0  0  0  0  0  0  0999 V2000
   26.9650    7.9070   -9.5380 C   0  0  0  0  0  0  0  0  0  0  0  0
   27.6890    7.0640  -10.0120 O   0  0  0  0  0  0  0  0  0  0  0  0
   26.9650    9.2760  -10.0750 N   0  0  0  0  0  0  0  0  0  0  0  0
  1  3  1  0
  1  2  2  0
M  END
>  <Pose ID>  (201)
223

>  <Score>  (201)
-5.764690637588501

$$$$

     RDKit          3D

  3  2  0  0  0  0  0  0  0  0999 V2000
   28.7400   12.4810  -13.2200 N   0  0  0  0  0  0  0  0  0  0  0  0
   30.0670   12.3230  -13.2200 C   0  0  0  0  0  0  0  0  0  0  0  0
   30.9020   13.1030  -13.6500 O   0  0  0  0  0  0  0  0  0  0  0  0
  1  2  1  0
  2  3  2  0
M  END
>  <Pose ID>  (202)
260

>  <Score>  (202)
-5.761031866073608

$$$$

     RDKit          3D

  3  2  0  0  0  0  0  0  0  0999 V2000
   24.5400   10.2890   -8.5760 O   0  0  0  0  0  0  0  0  0  0  0  0
   25.8300    9.6570   -8.2140 S   0  0  0  0  0  0  0  0  0  0  0  0
   26.6680   10.9160   -7.3350 N   0  0  0  0  0  0  0  0  0  0  0  0
  1  2  2  0
  2  3  1  0
M  END
>  <Pose ID>  (203)
234

>  <Score>  (203)
-5.750900339335203

$$$$

     RDKit          3D

  3  2  0  0  0  0  0  0  0  0999 V2000
   30.2610   10.9850  -12.6390 C   0  0  0  0  0  0  0  0  0  0  0  0
   29.9630   12.3040  -13.1640 C   0  0  0  0  0  0  0  0  0  0  0  0
   30.7350   13.2360  -13.4900 O   0  0  0  0  0  0  0  0  0  0  0  0
  1  2  1  0
  2  3  2  0
M  END
>  <Pose ID>  (204)
169

>  <Score>  (204)
-5.71078759431839

$$$$

     RDKit          3D

  3  2  0  0  0  0  0  0  0  0999 V2000
   26.5410    9.0890   -8.1170 C   0  0  0  0  0  0  0  0  0  0  0  0
   25.8610   10.3410   -7.5890 N   0  0  0  0  0  0  0  0  0  0  0  0
   26.6650    7.9010   -7.2570 N   0  0  0  0  0  0  0  0  0  0  0  0
  1  2  2  0
  1  3  1  0
M  CHG  1   2   1
M  END
>  <Pose ID>  (205)
28

>  <Score>  (205)
-5.5655383467674255

$$$$

     RDKit          3D

  3  2  0  0  0  0  0  0  0  0999 V2000
   27.9740   11.9160  -12.5830 C   0  0  0  0  0  0  0  0  0  0  0  0
   27.6910   10.4220  -12.3710 C   0  0  0  0  0  0  0  0  0  0  0  0
   26.9990   12.5590  -13.4070 O   0  0  0  0  0  0  0  0  0  0  0  0
  1  3  1  0
  1  2  1  0
M  END
>  <Pose ID>  (206)
249

>  <Score>  (206)
-5.561137885786593

$$$$

     RDKit          3D

  3  2  0  0  0  0  0  0  0  0999 V2000
   27.5980    9.6410  -10.8300 C   0  0  0  0  0  0  0  0  0  0  0  0
   28.4150    9.5350  -12.1080 N   0  0  0  0  0  0  0  0  0  0  0  0
   26.7950   10.8440  -10.5670 N   0  0  0  0  0  0  0  0  0  0  0  0
  1  2  2  0
  1  3  1  0
M  CHG  1   2   1
M  END
>  <Pose ID>  (207)
29

>  <Score>  (207)
-5.56040894985199

$$$$

     RDKit          3D

  3  2  0  0  0  0  0  0  0  0999 V2000
   27.6830   12.0500  -12.5140 C   0  0  0  0  0  0  0  0  0  0  0  0
   29.8200   10.9280  -12.6400 C   0  0  0  0  0  0  0  0  0  0  0  0
   29.0230   12.0680  -13.1370 N   0  0  0  0  0  0  0  0  0  0  0  0
  1  3  1  0
  2  3  1  0
M  CHG  1   3   1
M  END
>  <Pose ID>  (208)
52

>  <Score>  (208)
-5.5400126576423645

$$$$

     RDKit          3D

  3  2  0  0  0  0  0  0  0  0999 V2000
   28.0500   11.8330  -12.9640 C   0  0  0  0  0  0  0  0  0  0  0  0
   29.5780   11.9690  -13.0140 C   0  0  0  0  0  0  0  0  0  0  0  0
   27.3710   13.0920  -12.6300 N   0  0  0  0  0  0  0  0  0  0  0  0
  1  2  1  0
  1  3  1  0
M  CHG  1   3   1
M  END
>  <Pose ID>  (209)
60

>  <Score>  (209)
-5.517702728509903

$$$$

     RDKit          3D

  3  2  0  0  0  0  0  0  0  0999 V2000
   24.9070   11.1890   -9.0150 C   0  0  0  0  0  0  0  0  0  0  0  0
   23.8690   11.9770   -8.3780 C   0  0  0  0  0  0  0  0  0  0  0  0
   23.2960   13.0210   -8.7670 O   0  0  0  0  0  0  0  0  0  0  0  0
  1  2  1  0
  2  3  2  0
M  END
>  <Pose ID>  (210)
170

>  <Score>  (210)
-5.503921866416931

$$$$

     RDKit          3D

  3  2  0  0  0  0  0  0  0  0999 V2000
   27.8810   11.0810  -11.2040 C   0  0  0  0  0  0  0  0  0  0  0  0
   28.9610   10.9020  -12.1630 C   0  0  0  0  0  0  0  0  0  0  0  0
   29.4150    9.7630  -12.4510 O   0  0  0  0  0  0  0  0  0  0  0  0
  1  2  1  0
  2  3  2  0
M  END
>  <Pose ID>  (211)
187

>  <Score>  (211)
-5.503795772790909

$$$$

     RDKit          3D

  3  2  0  0  0  0  0  0  0  0999 V2000
   24.1780   14.3480   -8.3200 C   0  0  0  0  0  0  0  0  0  0  0  0
   23.7200   11.9960   -8.6130 C   0  0  0  0  0  0  0  0  0  0  0  0
   23.4850   13.1830   -7.8250 O   0  0  0  0  0  0  0  0  0  0  0  0
  1  3  1  0
  2  3  1  0
M  END
>  <Pose ID>  (212)
126

>  <Score>  (212)
-5.491649446077645

$$$$

     RDKit          3D

  3  2  0  0  0  0  0  0  0  0999 V2000
   27.5130   13.2760  -10.9750 C   0  0  0  0  0  0  0  0  0  0  0  0
   27.5390   13.6310  -12.3190 C   0  0  0  0  0  0  0  0  0  0  0  0
   27.6850   14.9440  -12.6640 O   0  0  0  0  0  0  0  0  0  0  0  0
  1  2  2  0
  2  3  1  0
M  END
>  <Pose ID>  (213)
277

>  <Score>  (213)
-5.479985237121582

$$$$

     RDKit          3D

  3  2  0  0  0  0  0  0  0  0999 V2000
   27.4650    9.5790  -10.2990 C   0  0  0  0  0  0  0  0  0  0  0  0
   26.2290    9.0100   -9.5770 C   0  0  0  0  0  0  0  0  0  0  0  0
   25.3460    9.7890   -9.2250 O   0  0  0  0  0  0  0  0  0  0  0  0
  1  2  1  0
  2  3  2  0
M  END
>  <Pose ID>  (214)
146

>  <Score>  (214)
-5.458773717284203

$$$$

     RDKit          3D

  3  2  0  0  0  0  0  0  0  0999 V2000
   23.6190   12.9810   -8.5930 C   0  0  0  0  0  0  0  0  0  0  0  0
   23.8030   13.4220   -7.2240 C   0  0  0  0  0  0  0  0  0  0  0  0
   23.0670   14.1290   -6.4970 O   0  0  0  0  0  0  0  0  0  0  0  0
  1  2  1  0
  2  3  2  0
M  END
>  <Pose ID>  (215)
171

>  <Score>  (215)
-5.454719394445419

$$$$

     RDKit          3D

  3  2  0  0  0  0  0  0  0  0999 V2000
   29.7110   13.6370  -12.5490 C   0  0  0  0  0  0  0  0  0  0  0  0
   27.5020   13.8510  -12.6760 C   0  0  0  0  0  0  0  0  0  0  0  0
   28.6590   14.4500  -12.1850 N   0  0  0  0  0  0  0  0  0  0  0  0
  1  3  1  0
  2  3  1  0
M  END
>  <Pose ID>  (216)
78

>  <Score>  (216)
-5.444006901234388

$$$$

     RDKit          3D

  3  2  0  0  0  0  0  0  0  0999 V2000
   23.5380   13.2050   -7.8550 O   0  0  0  0  0  0  0  0  0  0  0  0
   24.9830   13.0160   -7.7710 S   0  0  0  0  0  0  0  0  0  0  0  0
   25.8920   14.1480   -7.6080 O   0  0  0  0  0  0  0  0  0  0  0  0
  1  2  2  0
  2  3  2  0
M  END
>  <Pose ID>  (217)
115

>  <Score>  (217)
-5.420986473560333

$$$$

     RDKit          3D

  3  2  0  0  0  0  0  0  0  0999 V2000
   25.7380    8.7750   -7.2420 C   0  0  0  0  0  0  0  0  0  0  0  0
   24.0140    9.9640   -6.4950 C   0  0  0  0  0  0  0  0  0  0  0  0
   25.1730   10.0320   -7.2640 N   0  0  0  0  0  0  0  0  0  0  0  0
  1  3  1  0
  2  3  1  0
M  END
>  <Pose ID>  (218)
79

>  <Score>  (218)
-5.386606603860855

$$$$

     RDKit          3D

  3  2  0  0  0  0  0  0  0  0999 V2000
   27.6330   10.4780  -11.5620 C   0  0  0  0  0  0  0  0  0  0  0  0
   28.0200   11.9250  -11.2710 C   0  0  0  0  0  0  0  0  0  0  0  0
   26.7090    9.8970  -11.0060 O   0  0  0  0  0  0  0  0  0  0  0  0
  1  2  1  0
  1  3  2  0
M  END
>  <Pose ID>  (219)
134

>  <Score>  (219)
-5.377800036221743

$$$$

     RDKit          3D

  3  2  0  0  0  0  0  0  0  0999 V2000
   27.2850   11.6970  -12.4310 C   0  0  0  0  0  0  0  0  0  0  0  0
   26.8710   12.0370  -13.5050 O   0  0  0  0  0  0  0  0  0  0  0  0
   26.8680   12.2210  -11.4060 O   0  0  0  0  0  0  0  0  0  0  0  0
  1  2  2  0
  1  3  1  0
M  CHG  1   3  -1
M  END
>  <Pose ID>  (220)
106

>  <Score>  (220)
-5.35138326883316

$$$$

     RDKit          3D

  3  2  0  0  0  0  0  0  0  0999 V2000
   28.7410   12.8450  -10.3330 C   0  0  0  0  0  0  0  0  0  0  0  0
   29.4440   12.5140  -11.6410 N   0  0  0  0  0  0  0  0  0  0  0  0
   27.7140   11.9370   -9.8000 N   0  0  0  0  0  0  0  0  0  0  0  0
  1  2  2  0
  1  3  1  0
M  CHG  1   2   1
M  END
>  <Pose ID>  (221)
30

>  <Score>  (221)
-5.32540187984705

$$$$

     RDKit          3D

  3  2  0  0  0  0  0  0  0  0999 V2000
   26.3140    9.7510   -9.8360 C   0  0  0  0  0  0  0  0  0  0  0  0
   25.2400    9.9640   -9.3280 O   0  0  0  0  0  0  0  0  0  0  0  0
   26.9900    8.4610   -9.6360 N   0  0  0  0  0  0  0  0  0  0  0  0
  1  3  1  0
  1  2  2  0
M  END
>  <Pose ID>  (222)
224

>  <Score>  (222)
-5.295432284474373

$$$$

     RDKit          3D

  3  2  0  0  0  0  0  0  0  0999 V2000
   21.1590    8.7490   -4.7540 C   0  0  0  0  0  0  0  0  0  0  0  0
   22.3100    9.4820   -4.2610 C   0  0  0  0  0  0  0  0  0  0  0  0
   22.5390   10.7140   -4.2540 O   0  0  0  0  0  0  0  0  0  0  0  0
  1  2  1  0
  2  3  2  0
M  END
>  <Pose ID>  (223)
172

>  <Score>  (223)
-5.2572199404239655

$$$$

     RDKit          3D

  3  2  0  0  0  0  0  0  0  0999 V2000
   27.6090   10.4050  -11.0770 C   0  0  0  0  0  0  0  0  0  0  0  0
   27.3060    9.3790   -9.9880 C   0  0  0  0  0  0  0  0  0  0  0  0
   26.9760   11.4420  -11.2290 O   0  0  0  0  0  0  0  0  0  0  0  0
  1  3  2  0
  1  2  1  0
M  END
>  <Pose ID>  (224)
135

>  <Score>  (224)
-5.255001440644264

$$$$

     RDKit          3D

  3  2  0  0  0  0  0  0  0  0999 V2000
   27.8910   12.2320  -12.7200 C   0  0  0  0  0  0  0  0  0  0  0  0
   30.1400   12.2110  -13.0930 C   0  0  0  0  0  0  0  0  0  0  0  0
   28.9820   13.0590  -13.1570 O   0  0  0  0  0  0  0  0  0  0  0  0
  1  3  1  0
  2  3  1  0
M  END
>  <Pose ID>  (225)
159

>  <Score>  (225)
-5.24441260099411

$$$$

     RDKit          3D

  3  2  0  0  0  0  0  0  0  0999 V2000
   23.6130    8.0590   -5.1470 C   0  0  0  0  0  0  0  0  0  0  0  0
   24.4710    5.9800   -4.5550 N   0  0  0  0  0  0  0  0  0  0  0  0
   24.1980    6.8320   -5.6870 N   0  0  0  0  0  0  0  0  0  0  0  0
  1  3  2  0
  2  3  1  0
M  END
>  <Pose ID>  (226)
308

>  <Score>  (226)
-5.24199965596199

$$$$

     RDKit          3D

  3  2  0  0  0  0  0  0  0  0999 V2000
   27.6210   10.2680  -12.1200 N   0  0  0  0  0  0  0  0  0  0  0  0
   27.6910   11.5300  -11.6820 C   0  0  0  0  0  0  0  0  0  0  0  0
   26.7750   12.2120  -11.2510 O   0  0  0  0  0  0  0  0  0  0  0  0
  1  2  1  0
  2  3  2  0
M  END
>  <Pose ID>  (227)
261

>  <Score>  (227)
-5.238675475120544

$$$$

     RDKit          3D

  3  2  0  0  0  0  0  0  0  0999 V2000
   29.9150   11.2820  -12.8170 C   0  0  0  0  0  0  0  0  0  0  0  0
   28.3680   12.8040  -13.3010 C   0  0  0  0  0  0  0  0  0  0  0  0
   28.5540   11.4980  -12.8530 N   0  0  0  0  0  0  0  0  0  0  0  0
  1  3  1  0
  2  3  1  0
M  END
>  <Pose ID>  (228)
80

>  <Score>  (228)
-5.230611324310303

$$$$

     RDKit          3D

  3  2  0  0  0  0  0  0  0  0999 V2000
   29.3820   10.8620  -12.6510 C   0  0  0  0  0  0  0  0  0  0  0  0
   28.9400   11.8810  -13.1040 O   0  0  0  0  0  0  0  0  0  0  0  0
   30.5900   10.6680  -12.6150 O   0  0  0  0  0  0  0  0  0  0  0  0
  1  2  2  0
  1  3  1  0
M  CHG  1   3  -1
M  END
>  <Pose ID>  (229)
107

>  <Score>  (229)
-5.223089337348938

$$$$

     RDKit          3D

  3  2  0  0  0  0  0  0  0  0999 V2000
   27.4380   13.5580   -9.5820 N   0  0  0  0  0  0  0  0  0  0  0  0
   28.7020   13.3590   -9.9710 C   0  0  0  0  0  0  0  0  0  0  0  0
   29.7030   13.9020   -9.5310 O   0  0  0  0  0  0  0  0  0  0  0  0
  1  2  1  0
  2  3  2  0
M  END
>  <Pose ID>  (230)
262

>  <Score>  (230)
-5.193498432636261

$$$$

     RDKit          3D

  3  2  0  0  0  0  0  0  0  0999 V2000
   24.2710    6.6950   -4.8250 C   0  0  0  0  0  0  0  0  0  0  0  0
   22.0140    6.7110   -4.5150 C   0  0  0  0  0  0  0  0  0  0  0  0
   23.2160    6.0480   -4.0960 O   0  0  0  0  0  0  0  0  0  0  0  0
  1  3  1  0
  2  3  1  0
M  END
>  <Pose ID>  (231)
160

>  <Score>  (231)
-5.1773539781570435

$$$$

     RDKit          3D

  3  2  0  0  0  0  0  0  0  0999 V2000
   22.3330    7.8800   -0.5530 C   0  0  0  0  0  0  0  0  0  0  0  0
   22.8790    8.0280   -1.8890 C   0  0  0  0  0  0  0  0  0  0  0  0
   22.6530    8.8990   -2.7610 O   0  0  0  0  0  0  0  0  0  0  0  0
  1  2  1  0
  2  3  2  0
M  END
>  <Pose ID>  (232)
173

>  <Score>  (232)
-5.173242807388306

$$$$

     RDKit          3D

  3  2  0  0  0  0  0  0  0  0999 V2000
   24.9870   12.4550   -7.8670 C   0  0  0  0  0  0  0  0  0  0  0  0
   24.9370   13.6080   -8.7550 C   0  0  0  0  0  0  0  0  0  0  0  0
   23.8690   14.2440   -8.9610 O   0  0  0  0  0  0  0  0  0  0  0  0
  1  2  1  0
  2  3  2  0
M  END
>  <Pose ID>  (233)
188

>  <Score>  (233)
-5.161729216575623

$$$$

     RDKit          3D

  3  2  0  0  0  0  0  0  0  0999 V2000
   28.4780   10.5660  -12.0360 C   0  0  0  0  0  0  0  0  0  0  0  0
   29.5690   11.4190  -12.6980 C   0  0  0  0  0  0  0  0  0  0  0  0
   28.7770    9.1280  -12.0630 N   0  0  0  0  0  0  0  0  0  0  0  0
  1  2  1  0
  1  3  1  0
M  CHG  1   3   1
M  END
>  <Pose ID>  (234)
61

>  <Score>  (234)
-5.136488616466522

$$$$

     RDKit          3D

  3  2  0  0  0  0  0  0  0  0999 V2000
   25.6300    8.8780   -9.8730 O   0  0  0  0  0  0  0  0  0  0  0  0
   26.8420    8.4130   -9.1610 S   0  0  0  0  0  0  0  0  0  0  0  0
   26.3640    6.8550   -8.5220 N   0  0  0  0  0  0  0  0  0  0  0  0
  1  2  2  0
  2  3  1  0
M  END
>  <Pose ID>  (235)
235

>  <Score>  (235)
-5.133402407169342

$$$$

     RDKit          3D

  3  2  0  0  0  0  0  0  0  0999 V2000
   26.6100   12.1150  -10.2410 C   0  0  0  0  0  0  0  0  0  0  0  0
   25.5450   12.3400   -9.3530 C   0  0  0  0  0  0  0  0  0  0  0  0
   25.1220   13.7600   -9.0160 N   0  0  0  0  0  0  0  0  0  0  0  0
  1  2  2  0
  2  3  1  0
M  END
>  <Pose ID>  (236)
94

>  <Score>  (236)
-5.112263560295105

$$$$

     RDKit          3D

  3  2  0  0  0  0  0  0  0  0999 V2000
   25.4580   10.5190   -9.0830 C   0  0  0  0  0  0  0  0  0  0  0  0
   26.0330    9.3730   -9.9100 C   0  0  0  0  0  0  0  0  0  0  0  0
   24.3910   10.4580   -8.4850 O   0  0  0  0  0  0  0  0  0  0  0  0
  1  2  1  0
  1  3  2  0
M  END
>  <Pose ID>  (237)
136

>  <Score>  (237)
-5.110971465706825

$$$$

     RDKit          3D

  3  2  0  0  0  0  0  0  0  0999 V2000
   23.9850    7.9150   -5.3640 C   0  0  0  0  0  0  0  0  0  0  0  0
   24.1670    6.9870   -4.3450 C   0  0  0  0  0  0  0  0  0  0  0  0
   24.5430    5.7120   -4.6550 O   0  0  0  0  0  0  0  0  0  0  0  0
  1  2  2  0
  2  3  1  0
M  END
>  <Pose ID>  (238)
278

>  <Score>  (238)
-5.058421868830919

$$$$

     RDKit          3D

  3  2  0  0  0  0  0  0  0  0999 V2000
   30.3750   11.4430  -12.8960 C   0  0  0  0  0  0  0  0  0  0  0  0
   30.0000   13.6150  -13.8770 C   0  0  0  0  0  0  0  0  0  0  0  0
   30.9280   12.7410  -13.2010 O   0  0  0  0  0  0  0  0  0  0  0  0
  1  3  1  0
  2  3  1  0
M  END
>  <Pose ID>  (239)
127

>  <Score>  (239)
-5.039796471595764

$$$$

     RDKit          3D

  3  2  0  0  0  0  0  0  0  0999 V2000
   29.7500   11.8130  -12.9740 C   0  0  0  0  0  0  0  0  0  0  0  0
   30.1040   10.5870  -12.6020 N   0  0  0  0  0  0  0  0  0  0  0  0
   28.3610   11.9730  -12.9680 N   0  0  0  0  0  0  0  0  0  0  0  0
  1  3  1  0
  1  2  2  0
M  END
>  <Pose ID>  (240)
290

>  <Score>  (240)
-5.028927266597748

$$$$

     RDKit          3D

  3  2  0  0  0  0  0  0  0  0999 V2000
   27.6160    9.8770  -11.0730 C   0  0  0  0  0  0  0  0  0  0  0  0
   26.9340   10.8640  -11.0790 O   0  0  0  0  0  0  0  0  0  0  0  0
   27.4330    8.9960  -10.2420 O   0  0  0  0  0  0  0  0  0  0  0  0
  1  2  2  0
  1  3  1  0
M  CHG  1   3  -1
M  END
>  <Pose ID>  (241)
108

>  <Score>  (241)
-4.972746729850769

$$$$

     RDKit          3D

  3  2  0  0  0  0  0  0  0  0999 V2000
   25.3930    7.4630   -6.9480 N   0  0  0  0  0  0  0  0  0  0  0  0
   24.4490    7.4840   -6.0010 C   0  0  0  0  0  0  0  0  0  0  0  0
   24.0420    6.5380   -5.3450 O   0  0  0  0  0  0  0  0  0  0  0  0
  1  2  1  0
  2  3  2  0
M  END
>  <Pose ID>  (242)
263

>  <Score>  (242)
-4.970082048792392

$$$$

     RDKit          3D

  3  2  0  0  0  0  0  0  0  0999 V2000
   27.0630   12.3090  -10.8360 C   0  0  0  0  0  0  0  0  0  0  0  0
   27.2090   11.2460  -11.8130 C   0  0  0  0  0  0  0  0  0  0  0  0
   27.2150   11.2960  -13.0640 O   0  0  0  0  0  0  0  0  0  0  0  0
  1  2  1  0
  2  3  2  0
M  END
>  <Pose ID>  (243)
174

>  <Score>  (243)
-4.957247465848923

$$$$

     RDKit          3D

  3  2  0  0  0  0  0  0  0  0999 V2000
   27.5160   10.6310  -12.4970 C   0  0  0  0  0  0  0  0  0  0  0  0
   27.9990   11.8580  -12.9440 C   0  0  0  0  0  0  0  0  0  0  0  0
   27.1180   12.8370  -13.2980 O   0  0  0  0  0  0  0  0  0  0  0  0
  1  2  2  0
  2  3  1  0
M  END
>  <Pose ID>  (244)
279

>  <Score>  (244)
-4.951245079864748

$$$$

     RDKit          3D

  3  2  0  0  0  0  0  0  0  0999 V2000
   28.7360    9.9710  -12.2120 C   0  0  0  0  0  0  0  0  0  0  0  0
   30.0220   11.8610  -12.9430 C   0  0  0  0  0  0  0  0  0  0  0  0
   30.0810   10.4420  -12.5680 N   0  0  0  0  0  0  0  0  0  0  0  0
  1  3  1  0
  2  3  1  0
M  CHG  1   3   1
M  END
>  <Pose ID>  (245)
7

>  <Score>  (245)
-4.920677989721298

$$$$

     RDKit          3D

  3  2  0  0  0  0  0  0  0  0999 V2000
   27.0680   12.7040  -11.5100 N   0  0  0  0  0  0  0  0  0  0  0  0
   27.1790   11.9960  -12.6560 C   0  0  0  0  0  0  0  0  0  0  0  0
   27.1250   12.5600  -13.7380 O   0  0  0  0  0  0  0  0  0  0  0  0
  1  2  1  0
  2  3  2  0
M  END
>  <Pose ID>  (246)
332

>  <Score>  (246)
-4.906030565500259

$$$$

     RDKit          3D

  3  2  0  0  0  0  0  0  0  0999 V2000
   27.4630   13.4110  -12.1900 C   0  0  0  0  0  0  0  0  0  0  0  0
   27.2300   12.4700  -13.3800 C   0  0  0  0  0  0  0  0  0  0  0  0
   28.2330   14.6100  -12.5480 N   0  0  0  0  0  0  0  0  0  0  0  0
  1  2  1  0
  1  3  1  0
M  CHG  1   3   1
M  END
>  <Pose ID>  (247)
62

>  <Score>  (247)
-4.8919958882033825

$$$$

     RDKit          3D

  3  2  0  0  0  0  0  0  0  0999 V2000
   27.5430    8.6350  -10.1010 C   0  0  0  0  0  0  0  0  0  0  0  0
   26.9800   10.0470  -10.1570 N   0  0  0  0  0  0  0  0  0  0  0  0
   27.0290    7.6760   -9.1110 N   0  0  0  0  0  0  0  0  0  0  0  0
  1  2  2  0
  1  3  1  0
M  CHG  1   2   1
M  END
>  <Pose ID>  (248)
31

>  <Score>  (248)
-4.866915673017502

$$$$

     RDKit          3D

  3  2  0  0  0  0  0  0  0  0999 V2000
   28.2260   14.4530  -10.8880 C   0  0  0  0  0  0  0  0  0  0  0  0
   29.0130   13.3190  -10.2060 C   0  0  0  0  0  0  0  0  0  0  0  0
   26.7900   14.2740  -10.6340 N   0  0  0  0  0  0  0  0  0  0  0  0
  3  1  1  0
  1  2  1  0
M  CHG  1   3   1
M  END
>  <Pose ID>  (249)
20

>  <Score>  (249)
-4.852813135832548

$$$$

     RDKit          3D

  3  2  0  0  0  0  0  0  0  0999 V2000
   24.5970   21.5690    2.0880 C   0  0  0  0  0  0  0  0  0  0  0  0
   24.5700   19.7220    3.6470 C   0  0  0  0  0  0  0  0  0  0  0  0
   24.5320   21.1930    3.5150 N   0  0  0  0  0  0  0  0  0  0  0  0
  1  3  1  0
  2  3  1  0
M  CHG  1   3   1
M  END
>  <Pose ID>  (250)
53

>  <Score>  (250)
-4.843834403902292

$$$$

     RDKit          3D

  3  2  0  0  0  0  0  0  0  0999 V2000
   28.6010    9.9480  -12.3250 C   0  0  0  0  0  0  0  0  0  0  0  0
   27.2270   11.7820  -13.0410 C   0  0  0  0  0  0  0  0  0  0  0  0
   27.2210   10.4410  -12.4380 N   0  0  0  0  0  0  0  0  0  0  0  0
  1  3  1  0
  2  3  1  0
M  CHG  1   3   1
M  END
>  <Pose ID>  (251)
8

>  <Score>  (251)
-4.835367798805237

$$$$

     RDKit          3D

  3  2  0  0  0  0  0  0  0  0999 V2000
   27.9200   11.4700  -11.7510 C   0  0  0  0  0  0  0  0  0  0  0  0
   30.0150   11.5410  -12.9190 C   0  0  0  0  0  0  0  0  0  0  0  0
   29.0700   12.3140  -12.1010 N   0  0  0  0  0  0  0  0  0  0  0  0
  1  3  1  0
  2  3  1  0
M  CHG  1   3   1
M  END
>  <Pose ID>  (252)
68

>  <Score>  (252)
-4.8168036341667175

$$$$

     RDKit          3D

  3  2  0  0  0  0  0  0  0  0999 V2000
   26.8670    9.6300   -9.8680 C   0  0  0  0  0  0  0  0  0  0  0  0
   27.5290    8.4770   -9.1020 C   0  0  0  0  0  0  0  0  0  0  0  0
   27.4710    9.8670  -11.1870 N   0  0  0  0  0  0  0  0  0  0  0  0
  1  3  1  0
  1  2  1  0
M  CHG  1   3   1
M  END
>  <Pose ID>  (253)
63

>  <Score>  (253)
-4.816777262836695

$$$$

     RDKit          3D

  3  2  0  0  0  0  0  0  0  0999 V2000
   26.1890   10.3770   -8.3980 C   0  0  0  0  0  0  0  0  0  0  0  0
   25.8380   10.9150   -9.4390 O   0  0  0  0  0  0  0  0  0  0  0  0
   25.5780   10.5560   -7.3800 O   0  0  0  0  0  0  0  0  0  0  0  0
  1  2  2  0
  1  3  1  0
M  CHG  1   3  -1
M  END
>  <Pose ID>  (254)
109

>  <Score>  (254)
-4.785837918519974

$$$$

     RDKit          3D

  3  2  0  0  0  0  0  0  0  0999 V2000
   29.0570   12.5780  -13.3450 N   0  0  0  0  0  0  0  0  0  0  0  0
   27.7990   12.1210  -13.1510 C   0  0  0  0  0  0  0  0  0  0  0  0
   26.8370   12.8120  -13.4510 O   0  0  0  0  0  0  0  0  0  0  0  0
  1  2  1  0
  2  3  2  0
M  END
>  <Pose ID>  (255)
333

>  <Score>  (255)
-4.785388082265854

$$$$

     RDKit          3D

  3  2  0  0  0  0  0  0  0  0999 V2000
   24.3380   15.1350   -7.5070 C   0  0  0  0  0  0  0  0  0  0  0  0
   25.5510   16.0600   -7.5290 C   0  0  0  0  0  0  0  0  0  0  0  0
   24.0460   14.4190   -6.5570 O   0  0  0  0  0  0  0  0  0  0  0  0
  1  2  1  0
  1  3  2  0
M  END
>  <Pose ID>  (256)
137

>  <Score>  (256)
-4.77704530954361

$$$$

     RDKit          3D

  3  2  0  0  0  0  0  0  0  0999 V2000
   27.2880   10.9480  -11.5360 C   0  0  0  0  0  0  0  0  0  0  0  0
   27.4070   12.0630  -10.7130 C   0  0  0  0  0  0  0  0  0  0  0  0
   27.4720   11.8960   -9.3610 O   0  0  0  0  0  0  0  0  0  0  0  0
  1  2  2  0
  2  3  1  0
M  END
>  <Pose ID>  (257)
280

>  <Score>  (257)
-4.7754227835685015

$$$$

     RDKit          3D

  3  2  0  0  0  0  0  0  0  0999 V2000
   26.0360    9.5330   -7.4510 N   0  0  0  0  0  0  0  0  0  0  0  0
   25.4120    9.7480   -8.6140 C   0  0  0  0  0  0  0  0  0  0  0  0
   24.4650   10.4910   -8.8160 O   0  0  0  0  0  0  0  0  0  0  0  0
  1  2  1  0
  2  3  2  0
M  END
>  <Pose ID>  (258)
264

>  <Score>  (258)
-4.750355862081051

$$$$

     RDKit          3D

  3  2  0  0  0  0  0  0  0  0999 V2000
   27.6160   13.2580  -12.4410 C   0  0  0  0  0  0  0  0  0  0  0  0
   27.2770   12.7440  -11.0350 C   0  0  0  0  0  0  0  0  0  0  0  0
   27.0900   14.5610  -12.7020 O   0  0  0  0  0  0  0  0  0  0  0  0
  1  3  1  0
  1  2  1  0
M  END
>  <Pose ID>  (259)
250

>  <Score>  (259)
-4.7471732795238495

$$$$

     RDKit          3D

  3  2  0  0  0  0  0  0  0  0999 V2000
   18.1230   11.5180   -4.0460 C   0  0  0  0  0  0  0  0  0  0  0  0
   16.5640   12.9160   -2.8710 C   0  0  0  0  0  0  0  0  0  0  0  0
   16.9680   12.4140   -4.1930 N   0  0  0  0  0  0  0  0  0  0  0  0
  1  3  1  0
  2  3  1  0
M  CHG  1   3   1
M  END
>  <Pose ID>  (260)
69

>  <Score>  (260)
-4.739585667848587

$$$$

     RDKit          3D

  3  2  0  0  0  0  0  0  0  0999 V2000
   29.6140   12.5200  -10.9380 O   0  0  0  0  0  0  0  0  0  0  0  0
   29.3670   13.7490  -11.7260 S   0  0  0  0  0  0  0  0  0  0  0  0
   30.1110   15.0060  -10.7620 N   0  0  0  0  0  0  0  0  0  0  0  0
  1  2  2  0
  2  3  1  0
M  END
>  <Pose ID>  (261)
236

>  <Score>  (261)
-4.737188444472849

$$$$

     RDKit          3D

  3  2  0  0  0  0  0  0  0  0999 V2000
   29.2470   14.4410   -9.7140 C   0  0  0  0  0  0  0  0  0  0  0  0
   29.7980   13.8810  -11.7940 C   0  0  0  0  0  0  0  0  0  0  0  0
   29.9320   14.8760  -10.8290 N   0  0  0  0  0  0  0  0  0  0  0  0
  1  3  1  0
  2  3  1  0
M  END
>  <Pose ID>  (262)
81

>  <Score>  (262)
-4.716324049513787

$$$$

     RDKit          3D

  3  2  0  0  0  0  0  0  0  0999 V2000
   29.8960   13.2530  -12.9410 C   0  0  0  0  0  0  0  0  0  0  0  0
   30.2380   13.6790  -14.2090 N   0  0  0  0  0  0  0  0  0  0  0  0
   30.0680   14.1850  -11.7530 N   0  0  0  0  0  0  0  0  0  0  0  0
  1  2  1  0
  1  3  1  0
M  END
>  <Pose ID>  (263)
48

>  <Score>  (263)
-4.708820462226868

$$$$

     RDKit          3D

  3  2  0  0  0  0  0  0  0  0999 V2000
   29.5120   12.6300  -13.4530 C   0  0  0  0  0  0  0  0  0  0  0  0
   30.2460   13.6580  -14.2050 N   0  0  0  0  0  0  0  0  0  0  0  0
   30.2590   11.4540  -12.8440 N   0  0  0  0  0  0  0  0  0  0  0  0
  1  2  2  0
  1  3  1  0
M  CHG  1   2   1
M  END
>  <Pose ID>  (264)
32

>  <Score>  (264)
-4.696868143975735

$$$$

     RDKit          3D

  3  2  0  0  0  0  0  0  0  0999 V2000
   26.0260   10.8260   -7.0690 O   0  0  0  0  0  0  0  0  0  0  0  0
   26.7020   10.2230   -8.2140 S   0  0  0  0  0  0  0  0  0  0  0  0
   27.7560    9.2270   -8.0400 O   0  0  0  0  0  0  0  0  0  0  0  0
  1  2  2  0
  2  3  2  0
M  END
>  <Pose ID>  (265)
116

>  <Score>  (265)
-4.686415591277182

$$$$

     RDKit          3D

  3  2  0  0  0  0  0  0  0  0999 V2000
   28.7440   11.8560  -12.9450 C   0  0  0  0  0  0  0  0  0  0  0  0
   27.3000   12.2820  -13.2710 C   0  0  0  0  0  0  0  0  0  0  0  0
   28.7490   10.4670  -12.4630 N   0  0  0  0  0  0  0  0  0  0  0  0
  3  1  1  0
  1  2  1  0
M  CHG  1   3   1
M  END
>  <Pose ID>  (266)
21

>  <Score>  (266)
-4.686154492199421

$$$$

     RDKit          3D

  3  2  0  0  0  0  0  0  0  0999 V2000
   29.0570   14.2800   -9.9620 C   0  0  0  0  0  0  0  0  0  0  0  0
   27.6930   14.9670  -10.1150 C   0  0  0  0  0  0  0  0  0  0  0  0
   30.1340   14.9760  -10.6810 N   0  0  0  0  0  0  0  0  0  0  0  0
  1  3  1  0
  1  2  1  0
M  CHG  1   3   1
M  END
>  <Pose ID>  (267)
64

>  <Score>  (267)
-4.679875936359167

$$$$

     RDKit          3D

  3  2  0  0  0  0  0  0  0  0999 V2000
   26.1910   12.0890   -9.2600 C   0  0  0  0  0  0  0  0  0  0  0  0
   26.1600   13.4780   -9.3130 C   0  0  0  0  0  0  0  0  0  0  0  0
   27.2940   14.1640   -9.6370 O   0  0  0  0  0  0  0  0  0  0  0  0
  1  2  2  0
  2  3  1  0
M  END
>  <Pose ID>  (268)
281

>  <Score>  (268)
-4.629123796708882

$$$$

     RDKit          3D

  3  2  0  0  0  0  0  0  0  0999 V2000
   27.9020   13.4240  -12.3560 C   0  0  0  0  0  0  0  0  0  0  0  0
   27.3020   15.4190  -11.1640 C   0  0  0  0  0  0  0  0  0  0  0  0
   27.4510   14.8150  -12.4960 N   0  0  0  0  0  0  0  0  0  0  0  0
  1  3  1  0
  2  3  1  0
M  CHG  1   3   1
M  END
>  <Pose ID>  (269)
70

>  <Score>  (269)
-4.597409702837467

$$$$

     RDKit          3D

  3  2  0  0  0  0  0  0  0  0999 V2000
   23.7280   13.1680   -6.2630 C   0  0  0  0  0  0  0  0  0  0  0  0
   23.9370   11.3890   -7.6710 C   0  0  0  0  0  0  0  0  0  0  0  0
   23.9320   11.7470   -6.2800 O   0  0  0  0  0  0  0  0  0  0  0  0
  1  3  1  0
  2  3  1  0
M  END
>  <Pose ID>  (270)
161

>  <Score>  (270)
-4.596408009529114

$$$$

     RDKit          3D

  3  2  0  0  0  0  0  0  0  0999 V2000
   23.9430    8.7320   -2.7530 C   0  0  0  0  0  0  0  0  0  0  0  0
   24.2610    6.4550   -3.1130 N   0  0  0  0  0  0  0  0  0  0  0  0
   24.4250    7.4980   -2.1290 N   0  0  0  0  0  0  0  0  0  0  0  0
  1  3  2  0
  2  3  1  0
M  END
>  <Pose ID>  (271)
309

>  <Score>  (271)
-4.564823465421796

$$$$

     RDKit          3D

  3  2  0  0  0  0  0  0  0  0999 V2000
   27.4290    8.9510   -7.5180 C   0  0  0  0  0  0  0  0  0  0  0  0
   26.3530    7.4600   -9.0620 C   0  0  0  0  0  0  0  0  0  0  0  0
   26.5660    7.7660   -7.6410 N   0  0  0  0  0  0  0  0  0  0  0  0
  1  3  1  0
  2  3  1  0
M  CHG  1   3   1
M  END
>  <Pose ID>  (272)
9

>  <Score>  (272)
-4.56410069251433

$$$$

     RDKit          3D

  3  2  0  0  0  0  0  0  0  0999 V2000
   26.7350    9.8690  -10.6000 C   0  0  0  0  0  0  0  0  0  0  0  0
   28.6050    9.2890  -12.0190 C   0  0  0  0  0  0  0  0  0  0  0  0
   27.9440    9.0280  -10.7230 N   0  0  0  0  0  0  0  0  0  0  0  0
  1  3  1  0
  2  3  1  0
M  CHG  1   3   1
M  END
>  <Pose ID>  (273)
54

>  <Score>  (273)
-4.557036250829697

$$$$

     RDKit          3D

  3  2  0  0  0  0  0  0  0  0999 V2000
   27.7790   12.3850  -13.3850 O   0  0  0  0  0  0  0  0  0  0  0  0
   29.0570   12.5370  -12.6950 S   0  0  0  0  0  0  0  0  0  0  0  0
   29.1340   13.0890  -11.3450 O   0  0  0  0  0  0  0  0  0  0  0  0
  1  2  2  0
  2  3  2  0
M  END
>  <Pose ID>  (274)
117

>  <Score>  (274)
-4.551975429058075

$$$$

     RDKit          3D

  3  2  0  0  0  0  0  0  0  0999 V2000
   25.8440   10.1270   -8.9320 C   0  0  0  0  0  0  0  0  0  0  0  0
   26.4600   10.0350   -7.5290 C   0  0  0  0  0  0  0  0  0  0  0  0
   24.4580   10.4730   -8.9130 O   0  0  0  0  0  0  0  0  0  0  0  0
  1  3  1  0
  1  2  1  0
M  END
>  <Pose ID>  (275)
251

>  <Score>  (275)
-4.539409339427948

$$$$

     RDKit          3D

  3  2  0  0  0  0  0  0  0  0999 V2000
   28.4120   10.4760  -11.7450 C   0  0  0  0  0  0  0  0  0  0  0  0
   28.2700   11.4790  -12.8980 C   0  0  0  0  0  0  0  0  0  0  0  0
   28.6220    9.1340  -12.1930 O   0  0  0  0  0  0  0  0  0  0  0  0
  1  2  1  0
  1  3  1  0
M  END
>  <Pose ID>  (276)
252

>  <Score>  (276)
-4.536983788013458

$$$$

     RDKit          3D

  3  2  0  0  0  0  0  0  0  0999 V2000
   23.9220    7.1160   -3.9260 C   0  0  0  0  0  0  0  0  0  0  0  0
   24.1190    6.9570   -2.4060 C   0  0  0  0  0  0  0  0  0  0  0  0
   24.5540    5.9880   -4.6230 N   0  0  0  0  0  0  0  0  0  0  0  0
  3  1  1  0
  1  2  1  0
M  CHG  1   3   1
M  END
>  <Pose ID>  (277)
22

>  <Score>  (277)
-4.531051568686962

$$$$

     RDKit          3D

  3  2  0  0  0  0  0  0  0  0999 V2000
   30.4160   12.3310  -13.2940 C   0  0  0  0  0  0  0  0  0  0  0  0
   31.6350   12.4920  -13.9210 N   0  0  0  0  0  0  0  0  0  0  0  0
   30.0120   10.9650  -12.7630 N   0  0  0  0  0  0  0  0  0  0  0  0
  1  2  1  0
  1  3  1  0
M  END
>  <Pose ID>  (278)
49

>  <Score>  (278)
-4.5301496386528015

$$$$

     RDKit          3D

  3  2  0  0  0  0  0  0  0  0999 V2000
   29.6200   12.2690  -11.9280 N   0  0  0  0  0  0  0  0  0  0  0  0
   29.0580   12.7030  -10.7760 C   0  0  0  0  0  0  0  0  0  0  0  0
   29.5770   13.6050  -10.1370 O   0  0  0  0  0  0  0  0  0  0  0  0
  1  2  1  0
  2  3  2  0
M  END
>  <Pose ID>  (279)
334

>  <Score>  (279)
-4.495735704898834

$$$$

     RDKit          3D

  3  2  0  0  0  0  0  0  0  0999 V2000
   28.6040   16.1690  -10.2700 N   0  0  0  0  0  0  0  0  0  0  0  0
   28.8640   14.8570  -10.2320 C   0  0  0  0  0  0  0  0  0  0  0  0
   29.8050   14.3080   -9.6810 O   0  0  0  0  0  0  0  0  0  0  0  0
  1  2  1  0
  2  3  2  0
M  END
>  <Pose ID>  (280)
265

>  <Score>  (280)
-4.495177656412125

$$$$

     RDKit          3D

  3  2  0  0  0  0  0  0  0  0999 V2000
   29.1990   12.6900  -11.3050 C   0  0  0  0  0  0  0  0  0  0  0  0
   28.4370   13.7670   -9.2840 C   0  0  0  0  0  0  0  0  0  0  0  0
   29.5700   13.3540  -10.0790 O   0  0  0  0  0  0  0  0  0  0  0  0
  1  3  1  0
  2  3  1  0
M  END
>  <Pose ID>  (281)
128

>  <Score>  (281)
-4.46538607776165

$$$$

     RDKit          3D

  3  2  0  0  0  0  0  0  0  0999 V2000
   24.2940    7.1350   -5.7070 C   0  0  0  0  0  0  0  0  0  0  0  0
   23.9470    6.5640   -3.4020 C   0  0  0  0  0  0  0  0  0  0  0  0
   24.5230    6.1130   -4.6750 N   0  0  0  0  0  0  0  0  0  0  0  0
  1  3  1  0
  2  3  1  0
M  CHG  1   3   1
M  END
>  <Pose ID>  (282)
10

>  <Score>  (282)
-4.46134814620018

$$$$

     RDKit          3D

  3  2  0  0  0  0  0  0  0  0999 V2000
   29.0550   11.0790  -12.6110 C   0  0  0  0  0  0  0  0  0  0  0  0
   28.6700    9.6760  -12.1240 C   0  0  0  0  0  0  0  0  0  0  0  0
   30.4930   11.2230  -12.8730 N   0  0  0  0  0  0  0  0  0  0  0  0
  1  3  1  0
  1  2  1  0
M  CHG  1   3   1
M  END
>  <Pose ID>  (283)
65

>  <Score>  (283)
-4.405630201101303

$$$$

     RDKit          3D

  3  2  0  0  0  0  0  0  0  0999 V2000
   29.9600   11.2090  -12.9970 O   0  0  0  0  0  0  0  0  0  0  0  0
   28.7910   11.6080  -12.2180 S   0  0  0  0  0  0  0  0  0  0  0  0
   28.9240   12.3870  -10.9890 O   0  0  0  0  0  0  0  0  0  0  0  0
  1  2  2  0
  2  3  2  0
M  END
>  <Pose ID>  (284)
118

>  <Score>  (284)
-4.385801523923874

$$$$

     RDKit          3D

  3  2  0  0  0  0  0  0  0  0999 V2000
   24.3380    7.1280   -5.7550 C   0  0  0  0  0  0  0  0  0  0  0  0
   23.9560    6.5770   -3.4320 C   0  0  0  0  0  0  0  0  0  0  0  0
   24.5460    6.1110   -4.7040 N   0  0  0  0  0  0  0  0  0  0  0  0
  1  3  1  0
  2  3  1  0
M  CHG  1   3   1
M  END
>  <Pose ID>  (285)
55

>  <Score>  (285)
-4.347652725875378

$$$$

     RDKit          3D

  3  2  0  0  0  0  0  0  0  0999 V2000
   27.3540   12.5020  -13.3940 C   0  0  0  0  0  0  0  0  0  0  0  0
   27.3460   11.3940  -12.4560 C   0  0  0  0  0  0  0  0  0  0  0  0
   27.3000   10.1600  -12.6660 O   0  0  0  0  0  0  0  0  0  0  0  0
  1  2  1  0
  2  3  2  0
M  END
>  <Pose ID>  (286)
175

>  <Score>  (286)
-4.34553686529398

$$$$

     RDKit          3D

  3  2  0  0  0  0  0  0  0  0999 V2000
   27.7400   13.8260   -8.1290 O   0  0  0  0  0  0  0  0  0  0  0  0
   28.2670   14.0010   -9.5000 S   0  0  0  0  0  0  0  0  0  0  0  0
   29.8750   14.6440   -9.2380 N   0  0  0  0  0  0  0  0  0  0  0  0
  1  2  2  0
  2  3  1  0
M  END
>  <Pose ID>  (287)
237

>  <Score>  (287)
-4.343523269963043

$$$$

     RDKit          3D

  3  2  0  0  0  0  0  0  0  0999 V2000
   25.7340    9.3610   -9.4020 C   0  0  0  0  0  0  0  0  0  0  0  0
   27.7610    8.8670  -10.4310 N   0  0  0  0  0  0  0  0  0  0  0  0
   26.7640    9.9010  -10.2890 N   0  0  0  0  0  0  0  0  0  0  0  0
  1  3  2  0
  2  3  1  0
M  END
>  <Pose ID>  (288)
310

>  <Score>  (288)
-4.341162741184235

$$$$

     RDKit          3D

  3  2  0  0  0  0  0  0  0  0999 V2000
   26.1680   15.3510   -5.0790 C   0  0  0  0  0  0  0  0  0  0  0  0
   25.6670   13.9690   -5.0110 N   0  0  0  0  0  0  0  0  0  0  0  0
   26.3920   16.1420   -3.8000 N   0  0  0  0  0  0  0  0  0  0  0  0
  1  2  2  0
  1  3  1  0
M  CHG  1   2   1
M  END
>  <Pose ID>  (289)
33

>  <Score>  (289)
-4.31708400696516

$$$$

     RDKit          3D

  3  2  0  0  0  0  0  0  0  0999 V2000
   24.3320   10.6510   -7.3340 C   0  0  0  0  0  0  0  0  0  0  0  0
   24.7610   11.1310   -8.7270 C   0  0  0  0  0  0  0  0  0  0  0  0
   23.3800   11.5190   -6.7120 O   0  0  0  0  0  0  0  0  0  0  0  0
  1  2  1  0
  1  3  1  0
M  END
>  <Pose ID>  (290)
253

>  <Score>  (290)
-4.266239702701569

$$$$

     RDKit          3D

  3  2  0  0  0  0  0  0  0  0999 V2000
   28.8250   10.3030  -12.4170 N   0  0  0  0  0  0  0  0  0  0  0  0
   29.5770   11.4280  -12.3800 C   0  0  0  0  0  0  0  0  0  0  0  0
   30.5490   11.5450  -13.1110 O   0  0  0  0  0  0  0  0  0  0  0  0
  1  2  1  0
  2  3  2  0
M  END
>  <Pose ID>  (291)
335

>  <Score>  (291)
-4.2648473381996155

$$$$

     RDKit          3D

  3  2  0  0  0  0  0  0  0  0999 V2000
   28.3670   13.4380  -10.1730 C   0  0  0  0  0  0  0  0  0  0  0  0
   30.1320   14.8130  -10.8100 N   0  0  0  0  0  0  0  0  0  0  0  0
   29.2110   14.5470   -9.7310 N   0  0  0  0  0  0  0  0  0  0  0  0
  1  3  2  0
  2  3  1  0
M  END
>  <Pose ID>  (292)
311

>  <Score>  (292)
-4.261995866894722

$$$$

     RDKit          3D

  3  2  0  0  0  0  0  0  0  0999 V2000
   25.4040   16.7520  -10.8080 C   0  0  0  0  0  0  0  0  0  0  0  0
   25.5760   16.7730  -13.2150 C   0  0  0  0  0  0  0  0  0  0  0  0
   24.7000   16.8060  -12.0680 O   0  0  0  0  0  0  0  0  0  0  0  0
  1  3  1  0
  2  3  1  0
M  END
>  <Pose ID>  (293)
129

>  <Score>  (293)
-4.247843332588673

$$$$

     RDKit          3D

  3  2  0  0  0  0  0  0  0  0999 V2000
   26.8850    8.0400   -9.0460 C   0  0  0  0  0  0  0  0  0  0  0  0
   26.0200    9.0770   -9.7540 C   0  0  0  0  0  0  0  0  0  0  0  0
   27.0040    6.8810   -9.4240 O   0  0  0  0  0  0  0  0  0  0  0  0
  1  2  1  0
  1  3  2  0
M  END
>  <Pose ID>  (294)
138

>  <Score>  (294)
-4.242649868130684

$$$$

     RDKit          3D

  3  2  0  0  0  0  0  0  0  0999 V2000
   25.7160    9.6800   -8.4800 C   0  0  0  0  0  0  0  0  0  0  0  0
   26.0790   10.9170   -7.9610 C   0  0  0  0  0  0  0  0  0  0  0  0
   25.6330   11.2850   -6.7250 O   0  0  0  0  0  0  0  0  0  0  0  0
  1  2  2  0
  2  3  1  0
M  END
>  <Pose ID>  (295)
282

>  <Score>  (295)
-4.227763039292768

$$$$

     RDKit          3D

  3  2  0  0  0  0  0  0  0  0999 V2000
   27.9630   11.0680  -12.3230 C   0  0  0  0  0  0  0  0  0  0  0  0
   29.1090   11.8860  -12.9480 C   0  0  0  0  0  0  0  0  0  0  0  0
   28.8530   13.0000  -13.4000 O   0  0  0  0  0  0  0  0  0  0  0  0
  1  2  1  0
  2  3  2  0
M  END
>  <Pose ID>  (296)
147

>  <Score>  (296)
-4.224939823150635

$$$$

     RDKit          3D

  3  2  0  0  0  0  0  0  0  0999 V2000
   29.9230   12.8080  -12.5270 C   0  0  0  0  0  0  0  0  0  0  0  0
   29.4400   13.4130  -11.3550 C   0  0  0  0  0  0  0  0  0  0  0  0
   29.9810   14.7650  -10.9190 N   0  0  0  0  0  0  0  0  0  0  0  0
  1  2  2  0
  2  3  1  0
M  END
>  <Pose ID>  (297)
95

>  <Score>  (297)
-4.214649315923452

$$$$

     RDKit          3D

  3  2  0  0  0  0  0  0  0  0999 V2000
   30.0270   14.0270  -11.8960 N   0  0  0  0  0  0  0  0  0  0  0  0
   29.3340   13.2260  -11.0810 C   0  0  0  0  0  0  0  0  0  0  0  0
   28.9170   13.4930   -9.9650 O   0  0  0  0  0  0  0  0  0  0  0  0
  1  2  1  0
  2  3  2  0
M  END
>  <Pose ID>  (298)
266

>  <Score>  (298)
-4.1971911787986755

$$$$

     RDKit          3D

  3  2  0  0  0  0  0  0  0  0999 V2000
   27.1510   11.8730  -12.6160 C   0  0  0  0  0  0  0  0  0  0  0  0
   27.5790   10.4100  -12.5510 C   0  0  0  0  0  0  0  0  0  0  0  0
   27.2840   12.5780  -13.6100 O   0  0  0  0  0  0  0  0  0  0  0  0
  1  3  2  0
  1  2  1  0
M  END
>  <Pose ID>  (299)
139

>  <Score>  (299)
-4.195775218307972

$$$$

     RDKit          3D

  3  2  0  0  0  0  0  0  0  0999 V2000
   25.6910    9.4910   -8.4300 C   0  0  0  0  0  0  0  0  0  0  0  0
   24.6790    9.9060   -7.4690 C   0  0  0  0  0  0  0  0  0  0  0  0
   24.0720   11.0050   -7.5720 O   0  0  0  0  0  0  0  0  0  0  0  0
  1  2  1  0
  2  3  2  0
M  END
>  <Pose ID>  (300)
189

>  <Score>  (300)
-4.195432424545288

$$$$

     RDKit          3D

  3  2  0  0  0  0  0  0  0  0999 V2000
   25.8340    9.5240   -9.5740 N   0  0  0  0  0  0  0  0  0  0  0  0
   26.9860    9.3570  -10.2320 C   0  0  0  0  0  0  0  0  0  0  0  0
   27.4650   10.0940  -11.0780 O   0  0  0  0  0  0  0  0  0  0  0  0
  1  2  1  0
  2  3  2  0
M  END
>  <Pose ID>  (301)
267

>  <Score>  (301)
-4.171309947967529

$$$$

     RDKit          3D

  3  2  0  0  0  0  0  0  0  0999 V2000
   26.0470   13.7790   -7.0070 C   0  0  0  0  0  0  0  0  0  0  0  0
   27.4800   14.2160   -7.2660 N   0  0  0  0  0  0  0  0  0  0  0  0
   25.5480   13.6740   -5.6280 N   0  0  0  0  0  0  0  0  0  0  0  0
  1  2  2  0
  1  3  1  0
M  CHG  1   2   1
M  END
>  <Pose ID>  (302)
34

>  <Score>  (302)
-4.142985016107559

$$$$

     RDKit          3D

  3  2  0  0  0  0  0  0  0  0999 V2000
   24.9910   15.0020   -7.3710 O   0  0  0  0  0  0  0  0  0  0  0  0
   24.5940   14.7110   -8.7470 S   0  0  0  0  0  0  0  0  0  0  0  0
   23.8000   15.6550   -9.5290 O   0  0  0  0  0  0  0  0  0  0  0  0
  1  2  2  0
  2  3  2  0
M  END
>  <Pose ID>  (303)
119

>  <Score>  (303)
-4.076650008559227

$$$$

     RDKit          3D

  3  2  0  0  0  0  0  0  0  0999 V2000
   27.6420   10.1900  -12.3610 N   0  0  0  0  0  0  0  0  0  0  0  0
   28.8880    9.6920  -12.1870 C   0  0  0  0  0  0  0  0  0  0  0  0
   29.0450    8.5520  -11.7750 O   0  0  0  0  0  0  0  0  0  0  0  0
  1  2  1  0
  2  3  2  0
M  END
>  <Pose ID>  (304)
336

>  <Score>  (304)
-4.076246105134487

$$$$

     RDKit          3D

  3  2  0  0  0  0  0  0  0  0999 V2000
   30.0140   13.5850  -13.0410 C   0  0  0  0  0  0  0  0  0  0  0  0
   30.0390   14.1940  -11.7000 N   0  0  0  0  0  0  0  0  0  0  0  0
   29.4820   13.2100  -10.8020 N   0  0  0  0  0  0  0  0  0  0  0  0
  1  2  1  0
  2  3  1  0
M  END
>  <Pose ID>  (305)
299

>  <Score>  (305)
-4.025572240352631

$$$$

     RDKit          3D

  3  2  0  0  0  0  0  0  0  0999 V2000
   26.9120    9.9260  -10.8040 C   0  0  0  0  0  0  0  0  0  0  0  0
   26.3200   11.0570   -9.9410 C   0  0  0  0  0  0  0  0  0  0  0  0
   25.5510   10.7570   -9.0300 O   0  0  0  0  0  0  0  0  0  0  0  0
  1  2  1  0
  2  3  2  0
M  END
>  <Pose ID>  (306)
148

>  <Score>  (306)
-4.02405458688736

$$$$

     RDKit          3D

  3  2  0  0  0  0  0  0  0  0999 V2000
   29.3460   13.9300  -10.3340 C   0  0  0  0  0  0  0  0  0  0  0  0
   29.9540   14.2500  -11.6350 N   0  0  0  0  0  0  0  0  0  0  0  0
   29.7880   14.6740   -9.0840 N   0  0  0  0  0  0  0  0  0  0  0  0
  1  2  2  0
  1  3  1  0
M  CHG  1   2   1
M  END
>  <Pose ID>  (307)
35

>  <Score>  (307)
-4.018190626055002

$$$$

     RDKit          3D

  3  2  0  0  0  0  0  0  0  0999 V2000
   29.3450   12.2650  -12.8180 C   0  0  0  0  0  0  0  0  0  0  0  0
   28.3050   12.5420  -12.2690 O   0  0  0  0  0  0  0  0  0  0  0  0
   29.8310   10.8770  -12.8360 N   0  0  0  0  0  0  0  0  0  0  0  0
  1  3  1  0
  1  2  2  0
M  END
>  <Pose ID>  (308)
225

>  <Score>  (308)
-4.009176433086395

$$$$

     RDKit          3D

  3  2  0  0  0  0  0  0  0  0999 V2000
   27.3480   13.1840  -12.2650 N   0  0  0  0  0  0  0  0  0  0  0  0
   27.1010   12.7160  -11.0370 C   0  0  0  0  0  0  0  0  0  0  0  0
   26.9180   13.3690  -10.0220 O   0  0  0  0  0  0  0  0  0  0  0  0
  1  2  1  0
  2  3  2  0
M  END
>  <Pose ID>  (309)
268

>  <Score>  (309)
-3.990091323852539

$$$$

     RDKit          3D

  3  2  0  0  0  0  0  0  0  0999 V2000
   21.9170   10.8640   -2.6500 C   0  0  0  0  0  0  0  0  0  0  0  0
   22.4040   10.8390   -1.2600 N   0  0  0  0  0  0  0  0  0  0  0  0
   23.3450    9.7490   -1.1830 N   0  0  0  0  0  0  0  0  0  0  0  0
  1  2  1  0
  2  3  1  0
M  END
>  <Pose ID>  (310)
300

>  <Score>  (310)
-3.9900798879316426

$$$$

     RDKit          3D

  3  2  0  0  0  0  0  0  0  0999 V2000
   27.4460   10.4610  -11.4450 C   0  0  0  0  0  0  0  0  0  0  0  0
   27.1050   11.8620  -11.7370 N   0  0  0  0  0  0  0  0  0  0  0  0
   26.6190    9.6700  -10.4470 N   0  0  0  0  0  0  0  0  0  0  0  0
  1  2  2  0
  1  3  1  0
M  CHG  1   2   1
M  END
>  <Pose ID>  (311)
36

>  <Score>  (311)
-3.96670164167881

$$$$

     RDKit          3D

  3  2  0  0  0  0  0  0  0  0999 V2000
   24.2510    7.1270   -5.6140 C   0  0  0  0  0  0  0  0  0  0  0  0
   24.5600    6.0250   -4.6880 N   0  0  0  0  0  0  0  0  0  0  0  0
   23.3710    5.8190   -3.8960 N   0  0  0  0  0  0  0  0  0  0  0  0
  1  2  1  0
  2  3  1  0
M  END
>  <Pose ID>  (312)
301

>  <Score>  (312)
-3.965859115123749

$$$$

     RDKit          3D

  3  2  0  0  0  0  0  0  0  0999 V2000
   17.7350   10.3960   -4.8770 C   0  0  0  0  0  0  0  0  0  0  0  0
   16.6760   10.1530   -3.7850 C   0  0  0  0  0  0  0  0  0  0  0  0
   17.4350   11.6520   -5.5790 N   0  0  0  0  0  0  0  0  0  0  0  0
  3  1  1  0
  1  2  1  0
M  CHG  1   3   1
M  END
>  <Pose ID>  (313)
23

>  <Score>  (313)
-3.956288944929838

$$$$

     RDKit          3D

  3  2  0  0  0  0  0  0  0  0999 V2000
   20.1710   10.1980   -3.9080 C   0  0  0  0  0  0  0  0  0  0  0  0
   20.9990    9.1850   -3.0960 C   0  0  0  0  0  0  0  0  0  0  0  0
   21.8280    9.6130   -2.2950 O   0  0  0  0  0  0  0  0  0  0  0  0
  1  2  1  0
  2  3  2  0
M  END
>  <Pose ID>  (314)
149

>  <Score>  (314)
-3.955150008201599

$$$$

     RDKit          3D

  3  2  0  0  0  0  0  0  0  0999 V2000
   26.4460   10.2450   -8.6920 C   0  0  0  0  0  0  0  0  0  0  0  0
   26.1860    9.2280   -9.7990 C   0  0  0  0  0  0  0  0  0  0  0  0
   26.8840   11.3710   -8.8920 O   0  0  0  0  0  0  0  0  0  0  0  0
  1  2  1  0
  1  3  2  0
M  END
>  <Pose ID>  (315)
140

>  <Score>  (315)
-3.9343393445014954

$$$$

     RDKit          3D

  3  2  0  0  0  0  0  0  0  0999 V2000
   27.2880    9.5360  -10.4780 C   0  0  0  0  0  0  0  0  0  0  0  0
   27.6000   10.2470  -11.5550 N   0  0  0  0  0  0  0  0  0  0  0  0
   28.0460    8.3640  -10.3940 N   0  0  0  0  0  0  0  0  0  0  0  0
  1  2  2  0
  1  3  1  0
M  END
>  <Pose ID>  (316)
291

>  <Score>  (316)
-3.9314585477113724

$$$$

     RDKit          3D

  3  2  0  0  0  0  0  0  0  0999 V2000
   19.5630    8.1950   -3.7860 C   0  0  0  0  0  0  0  0  0  0  0  0
   20.8930    7.6830   -3.5150 C   0  0  0  0  0  0  0  0  0  0  0  0
   21.2870    6.8890   -2.6300 O   0  0  0  0  0  0  0  0  0  0  0  0
  1  2  1  0
  2  3  2  0
M  END
>  <Pose ID>  (317)
176

>  <Score>  (317)
-3.9235048294067383

$$$$

     RDKit          3D

  3  2  0  0  0  0  0  0  0  0999 V2000
   24.1280    7.3080   -2.5190 C   0  0  0  0  0  0  0  0  0  0  0  0
   23.8800    6.6190   -3.4690 O   0  0  0  0  0  0  0  0  0  0  0  0
   24.8190    6.8820   -1.6020 O   0  0  0  0  0  0  0  0  0  0  0  0
  1  2  2  0
  1  3  1  0
M  CHG  1   3  -1
M  END
>  <Pose ID>  (318)
110

>  <Score>  (318)
-3.9163133408164867

$$$$

     RDKit          3D

  3  2  0  0  0  0  0  0  0  0999 V2000
   23.7290   15.5130   -9.3930 O   0  0  0  0  0  0  0  0  0  0  0  0
   24.6340   14.4880   -8.8260 S   0  0  0  0  0  0  0  0  0  0  0  0
   25.2170   15.2300   -7.3520 N   0  0  0  0  0  0  0  0  0  0  0  0
  1  2  2  0
  2  3  1  0
M  END
>  <Pose ID>  (319)
238

>  <Score>  (319)
-3.9044760678661987

$$$$

     RDKit          3D

  3  2  0  0  0  0  0  0  0  0999 V2000
   24.4480    8.1910   -6.1800 C   0  0  0  0  0  0  0  0  0  0  0  0
   25.4680    8.1780   -7.0310 N   0  0  0  0  0  0  0  0  0  0  0  0
   23.7100    9.3750   -6.2750 N   0  0  0  0  0  0  0  0  0  0  0  0
  1  2  2  0
  1  3  1  0
M  END
>  <Pose ID>  (320)
292

>  <Score>  (320)
-3.8947272151708603

$$$$

     RDKit          3D

  3  2  0  0  0  0  0  0  0  0999 V2000
   23.3980    9.9520   -1.1230 O   0  0  0  0  0  0  0  0  0  0  0  0
   22.6430    8.7060   -1.3810 S   0  0  0  0  0  0  0  0  0  0  0  0
   22.1330    8.2000    0.2150 N   0  0  0  0  0  0  0  0  0  0  0  0
  1  2  2  0
  2  3  1  0
M  END
>  <Pose ID>  (321)
239

>  <Score>  (321)
-3.8563386499881744

$$$$

     RDKit          3D

  3  2  0  0  0  0  0  0  0  0999 V2000
   27.4570   10.5380  -11.7910 C   0  0  0  0  0  0  0  0  0  0  0  0
   26.8010   10.2540  -10.8170 O   0  0  0  0  0  0  0  0  0  0  0  0
   28.5480    9.6580  -12.2370 N   0  0  0  0  0  0  0  0  0  0  0  0
  1  3  1  0
  1  2  2  0
M  END
>  <Pose ID>  (322)
226

>  <Score>  (322)
-3.7552037239074707

$$$$

     RDKit          3D

  3  2  0  0  0  0  0  0  0  0999 V2000
   30.5120   14.0120  -11.9660 O   0  0  0  0  0  0  0  0  0  0  0  0
   29.6430   13.3620  -12.9720 S   0  0  0  0  0  0  0  0  0  0  0  0
   30.0840   14.1590  -14.4670 N   0  0  0  0  0  0  0  0  0  0  0  0
  1  2  2  0
  2  3  1  0
M  END
>  <Pose ID>  (323)
240

>  <Score>  (323)
-3.7356666771811433

$$$$

     RDKit          3D

  3  2  0  0  0  0  0  0  0  0999 V2000
   24.7040   10.2460   -7.7100 C   0  0  0  0  0  0  0  0  0  0  0  0
   23.8160   11.2120   -7.2100 C   0  0  0  0  0  0  0  0  0  0  0  0
   22.8810   10.8660   -6.0630 N   0  0  0  0  0  0  0  0  0  0  0  0
  1  2  2  0
  2  3  1  0
M  END
>  <Pose ID>  (324)
96

>  <Score>  (324)
-3.724319249391556

$$$$

     RDKit          3D

  3  2  0  0  0  0  0  0  0  0999 V2000
   28.8540    9.1620  -12.0150 N   0  0  0  0  0  0  0  0  0  0  0  0
   28.1610   10.3240  -11.9950 C   0  0  0  0  0  0  0  0  0  0  0  0
   28.3600   11.1760  -12.8470 O   0  0  0  0  0  0  0  0  0  0  0  0
  1  2  1  0
  2  3  2  0
M  END
>  <Pose ID>  (325)
337

>  <Score>  (325)
-3.715849630534649

$$$$

     RDKit          3D

  3  2  0  0  0  0  0  0  0  0999 V2000
   23.8890    7.1320   -5.3960 C   0  0  0  0  0  0  0  0  0  0  0  0
   24.8260    7.8130   -6.4110 C   0  0  0  0  0  0  0  0  0  0  0  0
   24.6010    6.0310   -4.7320 N   0  0  0  0  0  0  0  0  0  0  0  0
  3  1  1  0
  1  2  1  0
M  CHG  1   3   1
M  END
>  <Pose ID>  (326)
24

>  <Score>  (326)
-3.715771608054638

$$$$

     RDKit          3D

  3  2  0  0  0  0  0  0  0  0999 V2000
   21.0580    5.0260   -1.9390 C   0  0  0  0  0  0  0  0  0  0  0  0
   21.0640    6.0780   -0.9400 C   0  0  0  0  0  0  0  0  0  0  0  0
   20.1270    6.5380   -0.2460 O   0  0  0  0  0  0  0  0  0  0  0  0
  1  2  1  0
  2  3  2  0
M  END
>  <Pose ID>  (327)
177

>  <Score>  (327)
-3.6775463223457336

$$$$

     RDKit          3D

  3  2  0  0  0  0  0  0  0  0999 V2000
   26.5620   10.2440   -7.3300 C   0  0  0  0  0  0  0  0  0  0  0  0
   26.7140   10.9600   -8.6790 C   0  0  0  0  0  0  0  0  0  0  0  0
   26.8440   11.0900   -6.2140 O   0  0  0  0  0  0  0  0  0  0  0  0
  1  2  1  0
  1  3  1  0
M  END
>  <Pose ID>  (328)
254

>  <Score>  (328)
-3.66162833571434

$$$$

     RDKit          3D

  3  2  0  0  0  0  0  0  0  0999 V2000
   29.7510   13.8740  -11.9280 C   0  0  0  0  0  0  0  0  0  0  0  0
   29.1420   14.5090   -9.6950 C   0  0  0  0  0  0  0  0  0  0  0  0
   30.0210   14.8160  -10.8320 N   0  0  0  0  0  0  0  0  0  0  0  0
  1  3  1  0
  2  3  1  0
M  CHG  1   3   1
M  END
>  <Pose ID>  (329)
11

>  <Score>  (329)
-3.6507767457515

$$$$

     RDKit          3D

  3  2  0  0  0  0  0  0  0  0999 V2000
   26.1510   10.5890   -9.3850 C   0  0  0  0  0  0  0  0  0  0  0  0
   26.7200    9.8550  -10.6060 C   0  0  0  0  0  0  0  0  0  0  0  0
   24.8330   10.1590   -9.0380 O   0  0  0  0  0  0  0  0  0  0  0  0
  1  2  1  0
  1  3  1  0
M  END
>  <Pose ID>  (330)
255

>  <Score>  (330)
-3.6192713379859924

$$$$

     RDKit          3D

  3  2  0  0  0  0  0  0  0  0999 V2000
   28.7280   10.1480  -12.2490 C   0  0  0  0  0  0  0  0  0  0  0  0
   30.0670   10.8100  -12.6250 C   0  0  0  0  0  0  0  0  0  0  0  0
   28.9650    8.7530  -11.8500 N   0  0  0  0  0  0  0  0  0  0  0  0
  3  1  1  0
  1  2  1  0
M  CHG  1   3   1
M  END
>  <Pose ID>  (331)
25

>  <Score>  (331)
-3.567961812019348

$$$$

     RDKit          3D

  3  2  0  0  0  0  0  0  0  0999 V2000
   28.4990    9.7370  -12.3470 O   0  0  0  0  0  0  0  0  0  0  0  0
   27.9040   11.0620  -12.1980 S   0  0  0  0  0  0  0  0  0  0  0  0
   27.0390   11.6310  -13.2290 O   0  0  0  0  0  0  0  0  0  0  0  0
  1  2  2  0
  2  3  2  0
M  END
>  <Pose ID>  (332)
120

>  <Score>  (332)
-3.5595473926514387

$$$$

     RDKit          3D

  3  2  0  0  0  0  0  0  0  0999 V2000
   22.1930    6.9730   -2.6170 C   0  0  0  0  0  0  0  0  0  0  0  0
   21.8740    6.5430   -1.1720 C   0  0  0  0  0  0  0  0  0  0  0  0
   21.5120    5.3860   -0.9710 O   0  0  0  0  0  0  0  0  0  0  0  0
  1  2  1  0
  2  3  2  0
M  END
>  <Pose ID>  (333)
150

>  <Score>  (333)
-3.5523762702941895

$$$$

     RDKit          3D

  3  2  0  0  0  0  0  0  0  0999 V2000
   28.3490   10.5290  -12.5380 C   0  0  0  0  0  0  0  0  0  0  0  0
   28.2400    9.3840  -11.5130 C   0  0  0  0  0  0  0  0  0  0  0  0
   29.0550    8.4650  -11.5730 O   0  0  0  0  0  0  0  0  0  0  0  0
  1  2  1  0
  2  3  2  0
M  END
>  <Pose ID>  (334)
151

>  <Score>  (334)
-3.5420132726430893

$$$$

     RDKit          3D

  3  2  0  0  0  0  0  0  0  0999 V2000
   29.9050   13.8470  -14.2610 O   0  0  0  0  0  0  0  0  0  0  0  0
   29.3230   13.3240  -13.0040 S   0  0  0  0  0  0  0  0  0  0  0  0
   30.2650   14.1140  -11.7590 N   0  0  0  0  0  0  0  0  0  0  0  0
  1  2  2  0
  2  3  1  0
M  END
>  <Pose ID>  (335)
241

>  <Score>  (335)
-3.539766840520315

$$$$

     RDKit          3D

  3  2  0  0  0  0  0  0  0  0999 V2000
   27.4880    8.5760  -10.0440 C   0  0  0  0  0  0  0  0  0  0  0  0
   26.9440    9.8130  -10.2310 N   0  0  0  0  0  0  0  0  0  0  0  0
   27.0710    7.8110   -8.9440 N   0  0  0  0  0  0  0  0  0  0  0  0
  1  2  2  0
  1  3  1  0
M  END
>  <Pose ID>  (336)
322

>  <Score>  (336)
-3.524811238050461

$$$$

     RDKit          3D

  3  2  0  0  0  0  0  0  0  0999 V2000
   27.4920   11.2440  -11.3310 C   0  0  0  0  0  0  0  0  0  0  0  0
   27.4200   13.5080  -12.1740 C   0  0  0  0  0  0  0  0  0  0  0  0
   27.0320   12.6210  -11.0580 N   0  0  0  0  0  0  0  0  0  0  0  0
  1  3  1  0
  2  3  1  0
M  CHG  1   3   1
M  END
>  <Pose ID>  (337)
56

>  <Score>  (337)
-3.5102257132530212

$$$$
